
=================
  PFLOTRAN v3.0
=================


 *DXYZ 
  dx  
  1.0000E+00  1.0000E+00  1.0000E+00  1.0000E+00  1.0000E+00  1.0000E+00  1.0000E+00  1.0000E+00  1.0000E+00  1.0000E+00
  1.0000E+00  1.0000E+00  1.0000E+00  1.0000E+00  1.0000E+00  1.0000E+00
  dy  
  1.0000E+00  1.0000E+00  1.0000E+00  1.0000E+00  1.0000E+00  1.0000E+00  1.0000E+00  1.0000E+00  1.0000E+00  1.0000E+00
  1.0000E+00  1.0000E+00  1.0000E+00  1.0000E+00  1.0000E+00  1.0000E+00
  dz  
  1.0000E+00  1.0000E+00  1.0000E+00  1.0000E+00  1.0000E+00  1.0000E+00  1.0000E+00  1.0000E+00  1.0000E+00  1.0000E+00
  1.0000E+00  1.0000E+00  1.0000E+00  1.0000E+00  1.0000E+00  1.0000E+00
 Extent of Gridded Domain
  X: 0.0000000000000000 - 16.000000000000000
  Y: 0.0000000000000000 - 16.000000000000000
  Z: 0.0000000000000000 - 16.000000000000000


=+=+=+=+=+=+=+=+=+=+=+=+=+=+=+=+=+=+=+=+=+=+=+=+=+=+=+=+=+=+=+=+=+=+=+=+=+=+=+=+

  Initial Condition

--------------------------------------------------------------------------------
          Flow Condition:   initial_pressure
                  Region:   all
--------------------------------------------------------------------------------

  Flow Condition: initial_pressure
    Synchronize time with update: no
    Time units: yr
    Length units: m
      Datum:

    Sub Condition: pressure
      Type: dirichlet
      Gradient:
      Data:
        Dataset: Unnamed Ascii Dataset
          Type: dataset_ascii_type
          Transient: no
          Array Rank:  1

--------------------------------------------------------------------------------

=+=+=+=+=+=+=+=+=+=+=+=+=+=+=+=+=+=+=+=+=+=+=+=+=+=+=+=+=+=+=+=+=+=+=+=+=+=+=+=+

  Boundary Condition

--------------------------------------------------------------------------------
          Flow Condition:   influx
                  Region:   top_inf
--------------------------------------------------------------------------------

  Flow Condition: influx
    Synchronize time with update: no
    Time units: yr
    Length units: m
      Datum:

    Sub Condition: pressure
      Type: neumann
      Gradient:
      Data:
        Dataset: Unnamed Ascii Dataset
          Type: dataset_ascii_type
          Transient: no
          Array Rank:  1

--------------------------------------------------------------------------------

 Requested processors and decomposition =     1, npx,y,z=   -1  -1  -1
 Actual decomposition: npx,y,z=    1   1   1


FLOW Time Stepper
                 acceleration: on
       acceleration threshold: 5
       number of ramp entries: 5
                ramp entry #1: 2.0000
                ramp entry #2: 2.0000
                ramp entry #3: 2.0000
                ramp entry #4: 2.0000
                ramp entry #5: 2.0000
                ramp entry #6: 1.8000
                ramp entry #7: 1.6000
                ramp entry #8: 1.4000
                ramp entry #9: 1.2000
               ramp entry #10: 1.0000
               ramp entry #11: 1.0000
               ramp entry #12: 1.0000
               ramp entry #13: 1.0000
      maximum number of steps: 999999
constant time steps threshold: 5
       maximum number of cuts: 16
             reduction factor: 5.000000E-01
        maximum growth factor: 2.000000E+00

FLOW Newton Solver
                         atol: 1.000000E-50
                         rtol: 1.000000E-08
                         stol: 1.000000E-08
                         dtol: 1.000000E+04
                      maxnorm: 1.000000E+20
                    inftolres: -9.990000E+02
                    inftolupd: -9.990000E+02
                 inftolrelupd: -9.990000E+02
                 inftolsclres: -9.990000E+02
                     max iter: 50
                     min iter: 1
                         maxf: 10000
                  matrix type: baij
         precond. matrix type: baij
               inexact newton: off
            print convergence: on
   print detailed convergence: off
          check infinity norm: on

FLOW Linear Solver
                       solver: preonly
               preconditioner: lu
                         atol: 1.000000E-50
                         rtol: 1.000000E-05
                         dtol: 1.000000E+04
            maximum iteration: 10000

== RICHARDS FLOW ===============================================================
  0 2r: 2.56E-04 2x: 0.00E+00 2u: 0.00E+00 ir: 6.41E-05 iu: 0.00E+00 rsn:   0
  1 2r: 1.78E-06 2x: 1.28E+06 2u: 2.81E+03 ir: 5.17E-07 iu: 8.17E+02 rsn:   0
  2 2r: 8.83E-11 2x: 1.28E+06 2u: 1.95E+01 ir: 3.31E-11 iu: 6.49E+00 rsn:   0
  3 2r: 5.92E-16 2x: 1.28E+06 2u: 9.90E-04 ir: 6.94E-17 iu: 4.16E-04 rsn: rtol
 Step      1 Time=  1.00000E-03 Dt=  1.00000E-03 [d] snes_conv_reason:    3
  newton =   3 [       3] linear =     3 [         3] cuts =  0 [   0]
  --> max chng: dpmx=   8.1076E+02

== RICHARDS FLOW ===============================================================
  0 2r: 2.56E-04 2x: 0.00E+00 2u: 0.00E+00 ir: 6.41E-05 iu: 0.00E+00 rsn:   0
  1 2r: 3.58E-06 2x: 1.28E+06 2u: 5.55E+03 ir: 1.04E-06 iu: 1.61E+03 rsn:   0
  2 2r: 7.03E-10 2x: 1.28E+06 2u: 7.62E+01 ir: 2.63E-10 iu: 2.52E+01 rsn:   0
  3 2r: 3.07E-16 2x: 1.28E+06 2u: 1.53E-02 ir: 3.47E-17 iu: 6.41E-03 rsn: rtol
 Step      2 Time=  3.00000E-03 Dt=  2.00000E-03 [d] snes_conv_reason:    3
  newton =   3 [       6] linear =     3 [         6] cuts =  0 [   0]
  --> max chng: dpmx=   1.5834E+03

== RICHARDS FLOW ===============================================================
  0 2r: 2.56E-04 2x: 0.00E+00 2u: 0.00E+00 ir: 6.41E-05 iu: 0.00E+00 rsn:   0
  1 2r: 7.19E-06 2x: 1.28E+06 2u: 1.08E+04 ir: 2.09E-06 iu: 3.12E+03 rsn:   0
  2 2r: 5.56E-09 2x: 1.28E+06 2u: 2.90E+02 ir: 2.08E-09 iu: 9.52E+01 rsn:   0
  3 2r: 3.80E-15 2x: 1.28E+06 2u: 2.29E-01 ir: 2.09E-15 iu: 9.53E-02 rsn: rtol
 Step      3 Time=  7.00000E-03 Dt=  4.00000E-03 [d] snes_conv_reason:    3
  newton =   3 [       9] linear =     3 [         9] cuts =  0 [   0]
  --> max chng: dpmx=   3.0215E+03

== RICHARDS FLOW ===============================================================
  0 2r: 2.56E-04 2x: 0.00E+00 2u: 0.00E+00 ir: 6.41E-05 iu: 0.00E+00 rsn:   0
  1 2r: 1.45E-05 2x: 1.28E+06 2u: 2.05E+04 ir: 4.22E-06 iu: 5.86E+03 rsn:   0
  2 2r: 4.35E-08 2x: 1.28E+06 2u: 1.05E+03 ir: 1.63E-08 iu: 3.40E+02 rsn:   0
  3 2r: 4.45E-13 2x: 1.28E+06 2u: 3.22E+00 ir: 2.44E-13 iu: 1.32E+00 rsn: rtol
 Step      4 Time=  1.50000E-02 Dt=  8.00000E-03 [d] snes_conv_reason:    3
  newton =   3 [      12] linear =     3 [        12] cuts =  0 [   0]
  --> max chng: dpmx=   5.5155E+03

== RICHARDS FLOW ===============================================================
  0 2r: 2.56E-04 2x: 0.00E+00 2u: 0.00E+00 ir: 6.41E-05 iu: 0.00E+00 rsn:   0
  1 2r: 2.97E-05 2x: 1.29E+06 2u: 3.68E+04 ir: 8.66E-06 iu: 1.04E+04 rsn:   0
  2 2r: 3.32E-07 2x: 1.29E+06 2u: 3.44E+03 ir: 1.24E-07 iu: 1.09E+03 rsn:   0
  3 2r: 4.79E-11 2x: 1.29E+06 2u: 4.00E+01 ir: 2.60E-11 iu: 1.60E+01 rsn:   0
  4 2r: 3.44E-17 2x: 1.29E+06 2u: 5.91E-03 ir: 3.47E-18 iu: 3.36E-03 rsn: rtol
 Step      5 Time=  3.10000E-02 Dt=  1.60000E-02 [d] snes_conv_reason:    3
  newton =   4 [      16] linear =     4 [        16] cuts =  0 [   0]
  --> max chng: dpmx=   9.2756E+03

== RICHARDS FLOW ===============================================================
  0 2r: 2.56E-04 2x: 0.00E+00 2u: 0.00E+00 ir: 6.40E-05 iu: 0.00E+00 rsn:   0
  1 2r: 6.20E-05 2x: 1.29E+06 2u: 6.03E+04 ir: 1.83E-05 iu: 1.65E+04 rsn:   0
  2 2r: 2.41E-06 2x: 1.29E+06 2u: 9.44E+03 ir: 8.93E-07 iu: 2.84E+03 rsn:   0
  3 2r: 4.36E-09 2x: 1.29E+06 2u: 4.00E+02 ir: 2.33E-09 iu: 1.53E+02 rsn:   0
  4 2r: 2.01E-14 2x: 1.29E+06 2u: 7.35E-01 ir: 1.59E-14 iu: 4.02E-01 rsn: rtol
 Step      6 Time=  6.30000E-02 Dt=  3.20000E-02 [d] snes_conv_reason:    3
  newton =   4 [      20] linear =     4 [        20] cuts =  0 [   0]
  --> max chng: dpmx=   1.3535E+04

== RICHARDS FLOW ===============================================================
  0 2r: 2.56E-04 2x: 0.00E+00 2u: 0.00E+00 ir: 6.40E-05 iu: 0.00E+00 rsn:   0
  1 2r: 1.38E-04 2x: 1.31E+06 2u: 8.38E+04 ir: 4.22E-05 iu: 2.19E+04 rsn:   0
  2 2r: 1.66E-05 2x: 1.31E+06 2u: 1.86E+04 ir: 6.30E-06 iu: 5.07E+03 rsn:   0
  3 2r: 3.25E-07 2x: 1.30E+06 2u: 2.91E+03 ir: 1.80E-07 iu: 1.04E+03 rsn:   0
  4 2r: 1.87E-10 2x: 1.30E+06 2u: 5.83E+01 ir: 1.54E-10 iu: 3.14E+01 rsn:   0
  5 2r: 1.16E-16 2x: 1.30E+06 2u: 3.33E-02 ir: 1.13E-16 iu: 2.69E-02 rsn: rtol
 Step      7 Time=  1.27000E-01 Dt=  6.40000E-02 [d] snes_conv_reason:    3
  newton =   5 [      25] linear =     5 [        25] cuts =  0 [   0]
  --> max chng: dpmx=   1.5786E+04

== RICHARDS FLOW ===============================================================
  0 2r: 2.53E-04 2x: 0.00E+00 2u: 0.00E+00 ir: 6.37E-05 iu: 0.00E+00 rsn:   0
  1 2r: 2.43E-05 2x: 1.31E+06 2u: 1.52E+04 ir: 6.60E-06 iu: 3.84E+03 rsn:   0
  2 2r: 1.92E-07 2x: 1.31E+06 2u: 1.22E+03 ir: 6.13E-08 iu: 3.21E+02 rsn:   0
  3 2r: 1.27E-11 2x: 1.31E+06 2u: 9.74E+00 ir: 5.38E-12 iu: 3.04E+00 rsn:   0
  4 2r: 2.84E-17 2x: 1.31E+06 2u: 6.43E-04 ir: 3.47E-18 iu: 2.67E-04 rsn: rtol
 Step      8 Time=  1.48120E-01 Dt=  2.11200E-02 [d] snes_conv_reason:    3
  newton =   4 [      29] linear =     4 [        29] cuts =  0 [   0]
  --> max chng: dpmx=   3.5458E+03

== RICHARDS FLOW ===============================================================
  0 2r: 2.51E-04 2x: 0.00E+00 2u: 0.00E+00 ir: 6.35E-05 iu: 0.00E+00 rsn:   0
  1 2r: 5.04E-05 2x: 1.31E+06 2u: 2.55E+04 ir: 1.37E-05 iu: 6.50E+03 rsn:   0
  2 2r: 1.44E-06 2x: 1.31E+06 2u: 3.52E+03 ir: 4.66E-07 iu: 8.93E+02 rsn:   0
  3 2r: 1.31E-09 2x: 1.31E+06 2u: 1.10E+02 ir: 5.75E-10 iu: 3.21E+01 rsn:   0
  4 2r: 1.33E-15 2x: 1.31E+06 2u: 9.89E-02 ir: 8.77E-16 iu: 3.97E-02 rsn: rtol
 Step      9 Time=  1.90360E-01 Dt=  4.22400E-02 [d] snes_conv_reason:    3
  newton =   4 [      33] linear =     4 [        33] cuts =  0 [   0]
  --> max chng: dpmx=   5.6096E+03

== RICHARDS FLOW ===============================================================
  0 2r: 2.44E-04 2x: 0.00E+00 2u: 0.00E+00 ir: 6.28E-05 iu: 0.00E+00 rsn:   0
  1 2r: 1.12E-04 2x: 1.32E+06 2u: 3.88E+04 ir: 2.95E-05 iu: 9.44E+03 rsn:   0
  2 2r: 1.12E-05 2x: 1.32E+06 2u: 7.70E+03 ir: 3.24E-06 iu: 1.92E+03 rsn:   0
  3 2r: 1.31E-07 2x: 1.32E+06 2u: 1.63E+03 ir: 4.91E-08 iu: 3.51E+02 rsn:   0
  4 2r: 2.21E-11 2x: 1.32E+06 2u: 1.57E+01 ir: 1.15E-11 iu: 3.69E+00 rsn:   0
  5 2r: 7.04E-18 2x: 1.32E+06 2u: 2.79E-03 ir: 8.67E-19 iu: 8.92E-04 rsn: rtol
 Step     10 Time=  2.74840E-01 Dt=  8.44800E-02 [d] snes_conv_reason:    3
  newton =   5 [      38] linear =     5 [        38] cuts =  0 [   0]
  --> max chng: dpmx=   7.3302E+03

== RICHARDS FLOW ===============================================================
  0 2r: 2.23E-04 2x: 0.00E+00 2u: 0.00E+00 ir: 6.01E-05 iu: 0.00E+00 rsn:   0
  1 2r: 1.74E-05 2x: 1.32E+06 2u: 1.07E+04 ir: 4.76E-06 iu: 2.21E+03 rsn:   0
  2 2r: 9.45E-08 2x: 1.32E+06 2u: 4.59E+02 ir: 2.76E-08 iu: 1.26E+02 rsn:   0
  3 2r: 2.83E-12 2x: 1.32E+06 2u: 2.99E+00 ir: 9.47E-13 iu: 6.99E-01 rsn:   0
  4 2r: 2.16E-17 2x: 1.32E+06 2u: 8.73E-05 ir: 2.39E-18 iu: 2.40E-05 rsn: rtol
 Step     11 Time=  3.02718E-01 Dt=  2.78784E-02 [d] snes_conv_reason:    3
  newton =   4 [      42] linear =     4 [        42] cuts =  0 [   0]
  --> max chng: dpmx=   2.1985E+03

== RICHARDS FLOW ===============================================================
  0 2r: 2.13E-04 2x: 0.00E+00 2u: 0.00E+00 ir: 5.86E-05 iu: 0.00E+00 rsn:   0
  1 2r: 3.32E-05 2x: 1.33E+06 2u: 2.64E+04 ir: 9.54E-06 iu: 5.81E+03 rsn:   0
  2 2r: 6.61E-07 2x: 1.33E+06 2u: 1.28E+03 ir: 1.98E-07 iu: 3.65E+02 rsn:   0
  3 2r: 2.66E-10 2x: 1.33E+06 2u: 4.69E+01 ir: 9.41E-11 iu: 1.24E+01 rsn:   0
  4 2r: 4.79E-17 2x: 1.33E+06 2u: 1.71E-02 ir: 2.17E-17 iu: 4.84E-03 rsn: rtol
 Step     12 Time=  3.58475E-01 Dt=  5.57568E-02 [d] snes_conv_reason:    3
  newton =   4 [      46] linear =     4 [        46] cuts =  0 [   0]
  --> max chng: dpmx=   5.5879E+03

== RICHARDS FLOW ===============================================================
  0 2r: 1.93E-04 2x: 0.00E+00 2u: 0.00E+00 ir: 5.49E-05 iu: 0.00E+00 rsn:   0
  1 2r: 5.18E-05 2x: 1.34E+06 2u: 7.16E+04 ir: 1.78E-05 iu: 1.60E+04 rsn:   0
  2 2r: 2.84E-06 2x: 1.34E+06 2u: 7.07E+03 ir: 1.11E-06 iu: 1.83E+03 rsn:   0
  3 2r: 1.05E-08 2x: 1.34E+06 2u: 2.56E+02 ir: 5.14E-09 iu: 1.17E+02 rsn:   0
  4 2r: 1.76E-13 2x: 1.34E+06 2u: 1.20E+00 ir: 1.12E-13 iu: 6.28E-01 rsn: rtol
 Step     13 Time=  4.69989E-01 Dt=  1.11514E-01 [d] snes_conv_reason:    3
  newton =   4 [      50] linear =     4 [        50] cuts =  0 [   0]
  --> max chng: dpmx=   1.4207E+04

== RICHARDS FLOW ===============================================================
  0 2r: 1.66E-04 2x: 0.00E+00 2u: 0.00E+00 ir: 4.62E-05 iu: 0.00E+00 rsn:   0
  1 2r: 9.90E-05 2x: 1.38E+06 2u: 1.51E+05 ir: 4.17E-05 iu: 3.53E+04 rsn:   0
  2 2r: 2.20E-05 2x: 1.37E+06 2u: 3.33E+04 ir: 1.18E-05 iu: 7.82E+03 rsn:   0
  3 2r: 1.59E-06 2x: 1.37E+06 2u: 9.65E+03 ir: 1.08E-06 iu: 3.51E+03 rsn:   0
  4 2r: 1.15E-08 2x: 1.37E+06 2u: 5.66E+02 ir: 9.59E-09 iu: 3.49E+02 rsn:   0
  5 2r: 7.95E-13 2x: 1.37E+06 2u: 4.08E+00 ir: 7.61E-13 iu: 3.12E+00 rsn: rtol
 Step     14 Time=  6.93016E-01 Dt=  2.23027E-01 [d] snes_conv_reason:    3
  newton =   5 [      55] linear =     5 [        55] cuts =  0 [   0]
  --> max chng: dpmx=   2.4105E+04

== RICHARDS FLOW ===============================================================
  0 2r: 1.51E-04 2x: 0.00E+00 2u: 0.00E+00 ir: 3.42E-05 iu: 0.00E+00 rsn:   0
  1 2r: 1.68E-05 2x: 1.38E+06 2u: 2.81E+04 ir: 5.69E-06 iu: 5.68E+03 rsn:   0
  2 2r: 2.41E-07 2x: 1.38E+06 2u: 2.54E+03 ir: 1.07E-07 iu: 6.47E+02 rsn:   0
  3 2r: 6.21E-11 2x: 1.38E+06 2u: 3.16E+01 ir: 3.31E-11 iu: 1.20E+01 rsn:   0
  4 2r: 1.03E-17 2x: 1.38E+06 2u: 7.07E-03 ir: 3.25E-18 iu: 3.90E-03 rsn: rtol
 Step     15 Time=  7.66615E-01 Dt=  7.35990E-02 [d] snes_conv_reason:    3
  newton =   4 [      59] linear =     4 [        59] cuts =  0 [   0]
  --> max chng: dpmx=   5.0215E+03

== RICHARDS FLOW ===============================================================
  0 2r: 1.50E-04 2x: 0.00E+00 2u: 0.00E+00 ir: 3.71E-05 iu: 0.00E+00 rsn:   0
  1 2r: 4.65E-05 2x: 1.39E+06 2u: 4.92E+04 ir: 1.65E-05 iu: 9.48E+03 rsn:   0
  2 2r: 3.08E-06 2x: 1.39E+06 2u: 7.93E+03 ir: 1.41E-06 iu: 1.86E+03 rsn:   0
  3 2r: 1.75E-08 2x: 1.39E+06 2u: 6.39E+02 ir: 1.06E-08 iu: 2.28E+02 rsn:   0
  4 2r: 8.05E-13 2x: 1.39E+06 2u: 2.77E+00 ir: 6.10E-13 iu: 1.35E+00 rsn: rtol
 Step     16 Time=  9.13813E-01 Dt=  1.47198E-01 [d] snes_conv_reason:    3
  newton =   4 [      63] linear =     4 [        63] cuts =  0 [   0]
  --> max chng: dpmx=   7.8088E+03

== RICHARDS FLOW ===============================================================
  0 2r: 1.45E-04 2x: 0.00E+00 2u: 0.00E+00 ir: 3.86E-05 iu: 0.00E+00 rsn:   0
  1 2r: 1.85E-05 2x: 1.40E+06 2u: 2.29E+04 ir: 6.26E-06 iu: 3.83E+03 rsn:   0
  2 2r: 2.80E-07 2x: 1.40E+06 2u: 1.80E+03 ir: 1.23E-07 iu: 3.96E+02 rsn:   0
  3 2r: 7.84E-11 2x: 1.40E+06 2u: 2.84E+01 ir: 4.65E-11 iu: 8.63E+00 rsn:   0
  4 2r: 1.20E-17 2x: 1.40E+06 2u: 6.65E-03 ir: 7.05E-18 iu: 2.94E-03 rsn: rtol
 Step     17 Time=  1.00000E+00 Dt=  8.61871E-02 [d] snes_conv_reason:    3
  newton =   4 [      67] linear =     4 [        67] cuts =  0 [   0]
  --> max chng: dpmx=   3.6837E+03

== RICHARDS FLOW ===============================================================
  0 2r: 1.41E-04 2x: 0.00E+00 2u: 0.00E+00 ir: 3.80E-05 iu: 0.00E+00 rsn:   0
  1 2r: 1.08E-04 2x: 1.43E+06 2u: 1.01E+05 ir: 3.68E-05 iu: 2.52E+04 rsn:   0
  2 2r: 1.83E-05 2x: 1.42E+06 2u: 1.39E+04 ir: 6.74E-06 iu: 4.21E+03 rsn:   0
  3 2r: 7.01E-07 2x: 1.42E+06 2u: 4.77E+03 ir: 3.31E-07 iu: 1.31E+03 rsn:   0
  4 2r: 1.41E-09 2x: 1.42E+06 2u: 1.50E+02 ir: 8.58E-10 iu: 6.96E+01 rsn:   0
  5 2r: 8.13E-15 2x: 1.42E+06 2u: 2.58E-01 ir: 5.68E-15 iu: 1.48E-01 rsn: rtol
 Step     18 Time=  1.29440E+00 Dt=  2.94396E-01 [d] snes_conv_reason:    3
  newton =   5 [      72] linear =     5 [        72] cuts =  0 [   0]
  --> max chng: dpmx=   2.1579E+04

== RICHARDS FLOW ===============================================================
  0 2r: 1.24E-04 2x: 0.00E+00 2u: 0.00E+00 ir: 3.10E-05 iu: 0.00E+00 rsn:   0
  1 2r: 1.03E-05 2x: 1.43E+06 2u: 3.05E+04 ir: 2.96E-06 iu: 6.50E+03 rsn:   0
  2 2r: 6.85E-08 2x: 1.43E+06 2u: 1.62E+03 ir: 2.09E-08 iu: 5.37E+02 rsn:   0
  3 2r: 3.75E-12 2x: 1.43E+06 2u: 1.02E+01 ir: 1.93E-12 iu: 5.07E+00 rsn:   0
  4 2r: 6.02E-18 2x: 1.43E+06 2u: 7.35E-04 ir: 7.59E-19 iu: 4.65E-04 rsn: rtol
 Step     19 Time=  1.39155E+00 Dt=  9.71506E-02 [d] snes_conv_reason:    3
  newton =   4 [      76] linear =     4 [        76] cuts =  0 [   0]
  --> max chng: dpmx=   5.9758E+03

== RICHARDS FLOW ===============================================================
  0 2r: 1.20E-04 2x: 0.00E+00 2u: 0.00E+00 ir: 2.80E-05 iu: 0.00E+00 rsn:   0
  1 2r: 2.31E-05 2x: 1.45E+06 2u: 6.84E+04 ir: 8.02E-06 iu: 1.35E+04 rsn:   0
  2 2r: 1.04E-06 2x: 1.45E+06 2u: 8.05E+03 ir: 5.13E-07 iu: 2.35E+03 rsn:   0
  3 2r: 3.33E-09 2x: 1.45E+06 2u: 3.33E+02 ir: 1.75E-09 iu: 1.49E+02 rsn:   0
  4 2r: 3.53E-14 2x: 1.45E+06 2u: 9.64E-01 ir: 2.00E-14 iu: 5.12E-01 rsn: rtol
 Step     20 Time=  1.58585E+00 Dt=  1.94301E-01 [d] snes_conv_reason:    3
  newton =   4 [      80] linear =     4 [        80] cuts =  0 [   0]
  --> max chng: dpmx=   1.0999E+04

== RICHARDS FLOW ===============================================================
  0 2r: 1.16E-04 2x: 0.00E+00 2u: 0.00E+00 ir: 2.51E-05 iu: 0.00E+00 rsn:   0
  1 2r: 1.27E-04 2x: 1.49E+06 2u: 1.41E+05 ir: 5.61E-05 iu: 2.55E+04 rsn:   0
  2 2r: 3.72E-05 2x: 1.48E+06 2u: 3.32E+04 ir: 1.74E-05 iu: 9.43E+03 rsn:   0
  3 2r: 4.82E-06 2x: 1.48E+06 2u: 2.58E+04 ir: 2.66E-06 iu: 1.25E+04 rsn:   0
  4 2r: 1.19E-07 2x: 1.48E+06 2u: 2.07E+03 ir: 7.66E-08 iu: 1.18E+03 rsn:   0
  5 2r: 8.21E-11 2x: 1.48E+06 2u: 4.90E+01 ir: 6.51E-11 iu: 2.82E+01 rsn:   0
  6 2r: 5.08E-17 2x: 1.48E+06 2u: 3.25E-02 ir: 4.71E-17 iu: 2.33E-02 rsn: rtol
 Step     21 Time=  2.00000E+00 Dt=  4.14152E-01 [d] snes_conv_reason:    3
  newton =   6 [      86] linear =     6 [        86] cuts =  0 [   0]
  --> max chng: dpmx=   1.8424E+04

== RICHARDS FLOW ===============================================================
  0 2r: 1.13E-04 2x: 0.00E+00 2u: 0.00E+00 ir: 2.79E-05 iu: 0.00E+00 rsn:   0
  1 2r: 6.87E-05 2x: 1.52E+06 2u: 9.87E+04 ir: 2.29E-05 iu: 2.06E+04 rsn:   0
  2 2r: 9.93E-06 2x: 1.51E+06 2u: 1.61E+04 ir: 3.33E-06 iu: 2.95E+03 rsn:   0
  3 2r: 2.36E-07 2x: 1.51E+06 2u: 4.58E+03 ir: 8.96E-08 iu: 1.10E+03 rsn:   0
  4 2r: 1.60E-10 2x: 1.51E+06 2u: 7.88E+01 ir: 6.95E-11 iu: 2.62E+01 rsn:   0
  5 2r: 8.49E-17 2x: 1.51E+06 2u: 5.45E-02 ir: 4.31E-17 iu: 1.89E-02 rsn: rtol
 Step     22 Time=  2.38860E+00 Dt=  3.88603E-01 [d] snes_conv_reason:    3
  newton =   5 [      91] linear =     5 [        91] cuts =  0 [   0]
  --> max chng: dpmx=   1.8535E+04

== RICHARDS FLOW ===============================================================
  0 2r: 1.06E-04 2x: 0.00E+00 2u: 0.00E+00 ir: 2.53E-05 iu: 0.00E+00 rsn:   0
  1 2r: 8.84E-06 2x: 1.52E+06 2u: 2.77E+04 ir: 2.44E-06 iu: 5.75E+03 rsn:   0
  2 2r: 6.24E-08 2x: 1.52E+06 2u: 1.38E+03 ir: 1.90E-08 iu: 4.30E+02 rsn:   0
  3 2r: 3.48E-12 2x: 1.52E+06 2u: 8.97E+00 ir: 1.43E-12 iu: 3.06E+00 rsn:   0
  4 2r: 5.20E-18 2x: 1.52E+06 2u: 4.44E-04 ir: 1.19E-18 iu: 1.62E-04 rsn: rtol
 Step     23 Time=  2.51684E+00 Dt=  1.28239E-01 [d] snes_conv_reason:    3
  newton =   4 [      95] linear =     4 [        95] cuts =  0 [   0]
  --> max chng: dpmx=   5.3436E+03

== RICHARDS FLOW ===============================================================
  0 2r: 1.04E-04 2x: 0.00E+00 2u: 0.00E+00 ir: 2.37E-05 iu: 0.00E+00 rsn:   0
  1 2r: 1.97E-05 2x: 1.55E+06 2u: 6.33E+04 ir: 4.92E-06 iu: 1.26E+04 rsn:   0
  2 2r: 6.82E-07 2x: 1.54E+06 2u: 6.18E+03 ir: 2.62E-07 iu: 2.04E+03 rsn:   0
  3 2r: 1.44E-09 2x: 1.54E+06 2u: 2.68E+02 ir: 8.39E-10 iu: 1.20E+02 rsn:   0
  4 2r: 1.02E-14 2x: 1.54E+06 2u: 6.50E-01 ir: 7.48E-15 iu: 3.67E-01 rsn: rtol
 Step     24 Time=  2.77332E+00 Dt=  2.56478E-01 [d] snes_conv_reason:    3
  newton =   4 [      99] linear =     4 [        99] cuts =  0 [   0]
  --> max chng: dpmx=   1.0405E+04

== RICHARDS FLOW ===============================================================
  0 2r: 9.93E-05 2x: 0.00E+00 2u: 0.00E+00 ir: 2.06E-05 iu: 0.00E+00 rsn:   0
  1 2r: 1.45E-05 2x: 1.56E+06 2u: 5.52E+04 ir: 4.62E-06 iu: 9.49E+03 rsn:   0
  2 2r: 4.45E-07 2x: 1.56E+06 2u: 5.06E+03 ir: 2.15E-07 iu: 1.32E+03 rsn:   0
  3 2r: 7.55E-10 2x: 1.56E+06 2u: 1.48E+02 ir: 4.12E-10 iu: 5.91E+01 rsn:   0
  4 2r: 2.44E-15 2x: 1.56E+06 2u: 2.34E-01 ir: 1.49E-15 iu: 1.10E-01 rsn: rtol
 Step     25 Time=  3.00000E+00 Dt=  2.26681E-01 [d] snes_conv_reason:    3
  newton =   4 [     103] linear =     4 [       103] cuts =  0 [   0]
  --> max chng: dpmx=   8.5488E+03

== RICHARDS FLOW ===============================================================
  0 2r: 9.63E-05 2x: 0.00E+00 2u: 0.00E+00 ir: 1.79E-05 iu: 0.00E+00 rsn:   0
  1 2r: 6.46E-05 2x: 1.61E+06 2u: 1.35E+05 ir: 2.67E-05 iu: 2.38E+04 rsn:   0
  2 2r: 1.43E-05 2x: 1.60E+06 2u: 2.45E+04 ir: 6.46E-06 iu: 5.15E+03 rsn:   0
  3 2r: 9.35E-07 2x: 1.60E+06 2u: 1.06E+04 ir: 5.23E-07 iu: 4.54E+03 rsn:   0
  4 2r: 6.04E-09 2x: 1.60E+06 2u: 4.26E+02 ir: 3.84E-09 iu: 2.09E+02 rsn:   0
  5 2r: 2.72E-13 2x: 1.60E+06 2u: 2.76E+00 ir: 2.09E-13 iu: 1.67E+00 rsn: rtol
 Step     26 Time=  3.51296E+00 Dt=  5.12955E-01 [d] snes_conv_reason:    3
  newton =   5 [     108] linear =     5 [       108] cuts =  0 [   0]
  --> max chng: dpmx=   1.7685E+04

== RICHARDS FLOW ===============================================================
  0 2r: 9.16E-05 2x: 0.00E+00 2u: 0.00E+00 ir: 1.67E-05 iu: 0.00E+00 rsn:   0
  1 2r: 8.07E-06 2x: 1.61E+06 2u: 3.35E+04 ir: 2.23E-06 iu: 6.10E+03 rsn:   0
  2 2r: 8.36E-08 2x: 1.61E+06 2u: 2.08E+03 ir: 2.63E-08 iu: 4.24E+02 rsn:   0
  3 2r: 1.06E-11 2x: 1.61E+06 2u: 1.92E+01 ir: 3.37E-12 iu: 5.24E+00 rsn:   0
  4 2r: 4.58E-18 2x: 1.61E+06 2u: 2.50E-03 ir: 7.59E-19 iu: 8.16E-04 rsn: rtol
 Step     27 Time=  3.68223E+00 Dt=  1.69275E-01 [d] snes_conv_reason:    3
  newton =   4 [     112] linear =     4 [       112] cuts =  0 [   0]
  --> max chng: dpmx=   5.7668E+03

== RICHARDS FLOW ===============================================================
  0 2r: 9.01E-05 2x: 0.00E+00 2u: 0.00E+00 ir: 1.60E-05 iu: 0.00E+00 rsn:   0
  1 2r: 1.87E-05 2x: 1.64E+06 2u: 6.69E+04 ir: 4.51E-06 iu: 1.37E+04 rsn:   0
  2 2r: 8.19E-07 2x: 1.64E+06 2u: 7.40E+03 ir: 2.52E-07 iu: 2.05E+03 rsn:   0
  3 2r: 2.02E-09 2x: 1.64E+06 2u: 3.77E+02 ir: 7.38E-10 iu: 9.01E+01 rsn:   0
  4 2r: 1.47E-14 2x: 1.64E+06 2u: 7.50E-01 ir: 5.92E-15 iu: 1.87E-01 rsn: rtol
 Step     28 Time=  4.00000E+00 Dt=  3.17769E-01 [d] snes_conv_reason:    3
  newton =   4 [     116] linear =     4 [       116] cuts =  0 [   0]
  --> max chng: dpmx=   1.1751E+04

== RICHARDS FLOW ===============================================================
  0 2r: 8.69E-05 2x: 0.00E+00 2u: 0.00E+00 ir: 1.43E-05 iu: 0.00E+00 rsn:   0
  1 2r: 1.82E-05 2x: 1.66E+06 2u: 7.15E+04 ir: 4.39E-06 iu: 1.29E+04 rsn:   0
  2 2r: 8.76E-07 2x: 1.66E+06 2u: 7.50E+03 ir: 3.16E-07 iu: 2.25E+03 rsn:   0
  3 2r: 2.86E-09 2x: 1.66E+06 2u: 4.45E+02 ir: 1.61E-09 iu: 1.67E+02 rsn:   0
  4 2r: 5.07E-14 2x: 1.66E+06 2u: 1.54E+00 ir: 3.90E-14 iu: 8.37E-01 rsn: rtol
 Step     29 Time=  4.33855E+00 Dt=  3.38551E-01 [d] snes_conv_reason:    3
  newton =   4 [     120] linear =     4 [       120] cuts =  0 [   0]
  --> max chng: dpmx=   1.0484E+04

== RICHARDS FLOW ===============================================================
  0 2r: 8.37E-05 2x: 0.00E+00 2u: 0.00E+00 ir: 1.28E-05 iu: 0.00E+00 rsn:   0
  1 2r: 6.51E-05 2x: 1.72E+06 2u: 1.57E+05 ir: 2.82E-05 iu: 2.80E+04 rsn:   0
  2 2r: 1.68E-05 2x: 1.71E+06 2u: 2.84E+04 ir: 8.24E-06 iu: 5.91E+03 rsn:   0
  3 2r: 1.83E-06 2x: 1.71E+06 2u: 1.37E+04 ir: 1.03E-06 iu: 6.42E+03 rsn:   0
  4 2r: 3.15E-08 2x: 1.71E+06 2u: 1.05E+03 ir: 1.97E-08 iu: 5.27E+02 rsn:   0
  5 2r: 1.04E-11 2x: 1.71E+06 2u: 1.71E+01 ir: 7.27E-12 iu: 8.81E+00 rsn:   0
  6 2r: 2.65E-18 2x: 1.71E+06 2u: 5.49E-03 ir: 9.22E-19 iu: 3.14E-03 rsn: rtol
 Step     30 Time=  5.00000E+00 Dt=  6.61449E-01 [d] snes_conv_reason:    3
  newton =   6 [     126] linear =     6 [       126] cuts =  0 [   0]
  --> max chng: dpmx=   2.1246E+04

== RICHARDS FLOW ===============================================================
  0 2r: 7.88E-05 2x: 0.00E+00 2u: 0.00E+00 ir: 1.34E-05 iu: 0.00E+00 rsn:   0
  1 2r: 4.96E-05 2x: 1.76E+06 2u: 1.44E+05 ir: 1.21E-05 iu: 2.30E+04 rsn:   0
  2 2r: 1.00E-05 2x: 1.76E+06 2u: 2.38E+04 ir: 3.02E-06 iu: 4.37E+03 rsn:   0
  3 2r: 5.51E-07 2x: 1.76E+06 2u: 9.56E+03 ir: 2.21E-07 iu: 2.34E+03 rsn:   0
  4 2r: 2.35E-09 2x: 1.76E+06 2u: 4.20E+02 ir: 1.14E-09 iu: 1.15E+02 rsn:   0
  5 2r: 5.03E-14 2x: 1.76E+06 2u: 1.85E+00 ir: 2.89E-14 iu: 5.85E-01 rsn: rtol
 Step     31 Time=  5.67710E+00 Dt=  6.77101E-01 [d] snes_conv_reason:    3
  newton =   5 [     131] linear =     5 [       131] cuts =  0 [   0]
  --> max chng: dpmx=   1.9490E+04

== RICHARDS FLOW ===============================================================
  0 2r: 7.49E-05 2x: 0.00E+00 2u: 0.00E+00 ir: 1.17E-05 iu: 0.00E+00 rsn:   0
  1 2r: 6.21E-06 2x: 1.77E+06 2u: 3.78E+04 ir: 1.45E-06 iu: 5.78E+03 rsn:   0
  2 2r: 6.25E-08 2x: 1.77E+06 2u: 2.17E+03 ir: 1.94E-08 iu: 4.80E+02 rsn:   0
  3 2r: 8.73E-12 2x: 1.77E+06 2u: 1.96E+01 ir: 3.21E-12 iu: 4.52E+00 rsn:   0
  4 2r: 4.06E-18 2x: 1.77E+06 2u: 2.34E-03 ir: 8.67E-19 iu: 6.91E-04 rsn: rtol
 Step     32 Time=  5.90054E+00 Dt=  2.23443E-01 [d] snes_conv_reason:    3
  newton =   4 [     135] linear =     4 [       135] cuts =  0 [   0]
  --> max chng: dpmx=   5.2960E+03

== RICHARDS FLOW ===============================================================
  0 2r: 7.37E-05 2x: 0.00E+00 2u: 0.00E+00 ir: 1.08E-05 iu: 0.00E+00 rsn:   0
  1 2r: 2.27E-06 2x: 1.78E+06 2u: 1.60E+04 ir: 4.97E-07 iu: 2.30E+03 rsn:   0
  2 2r: 3.29E-09 2x: 1.78E+06 2u: 4.10E+02 ir: 9.40E-10 iu: 9.43E+01 rsn:   0
  3 2r: 9.86E-15 2x: 1.78E+06 2u: 5.43E-01 ir: 3.30E-15 iu: 1.85E-01 rsn: rtol
 Step     33 Time=  6.00000E+00 Dt=  9.94555E-02 [d] snes_conv_reason:    3
  newton =   3 [     138] linear =     3 [       138] cuts =  0 [   0]
  --> max chng: dpmx=   2.2105E+03

== RICHARDS FLOW ===============================================================
  0 2r: 7.32E-05 2x: 0.00E+00 2u: 0.00E+00 ir: 1.07E-05 iu: 0.00E+00 rsn:   0
  1 2r: 1.57E-05 2x: 1.81E+06 2u: 8.36E+04 ir: 3.94E-06 iu: 1.25E+04 rsn:   0
  2 2r: 8.04E-07 2x: 1.81E+06 2u: 9.35E+03 ir: 3.00E-07 iu: 1.96E+03 rsn:   0
  3 2r: 2.71E-09 2x: 1.81E+06 2u: 5.02E+02 ir: 1.50E-09 iu: 1.47E+02 rsn:   0
  4 2r: 4.75E-14 2x: 1.81E+06 2u: 1.61E+00 ir: 3.51E-14 iu: 7.21E-01 rsn: rtol
 Step     34 Time=  6.44689E+00 Dt=  4.46887E-01 [d] snes_conv_reason:    3
  newton =   4 [     142] linear =     4 [       142] cuts =  0 [   0]
  --> max chng: dpmx=   1.0960E+04

== RICHARDS FLOW ===============================================================
  0 2r: 7.13E-05 2x: 0.00E+00 2u: 0.00E+00 ir: 1.04E-05 iu: 0.00E+00 rsn:   0
  1 2r: 2.09E-05 2x: 1.85E+06 2u: 1.04E+05 ir: 6.21E-06 iu: 1.63E+04 rsn:   0
  2 2r: 1.71E-06 2x: 1.84E+06 2u: 1.40E+04 ir: 6.44E-07 iu: 2.65E+03 rsn:   0
  3 2r: 1.45E-08 2x: 1.84E+06 2u: 1.35E+03 ir: 6.83E-09 iu: 3.85E+02 rsn:   0
  4 2r: 1.32E-12 2x: 1.84E+06 2u: 8.19E+00 ir: 7.72E-13 iu: 2.53E+00 rsn:   0
  5 2r: 2.52E-18 2x: 1.84E+06 2u: 7.11E-04 ir: 6.51E-19 iu: 3.12E-04 rsn: rtol
 Step     35 Time=  7.00000E+00 Dt=  5.53113E-01 [d] snes_conv_reason:    3
  newton =   5 [     147] linear =     5 [       147] cuts =  0 [   0]
  --> max chng: dpmx=   1.3607E+04

== RICHARDS FLOW ===============================================================
  0 2r: 6.91E-05 2x: 0.00E+00 2u: 0.00E+00 ir: 1.05E-05 iu: 0.00E+00 rsn:   0
  1 2r: 5.41E-05 2x: 1.91E+06 2u: 1.74E+05 ir: 1.22E-05 iu: 2.60E+04 rsn:   0
  2 2r: 1.25E-05 2x: 1.90E+06 2u: 3.00E+04 ir: 3.35E-06 iu: 5.19E+03 rsn:   0
  3 2r: 8.92E-07 2x: 1.90E+06 2u: 1.50E+04 ir: 3.17E-07 iu: 3.44E+03 rsn:   0
  4 2r: 6.48E-09 2x: 1.90E+06 2u: 8.73E+02 ir: 2.93E-09 iu: 2.20E+02 rsn:   0
  5 2r: 4.05E-13 2x: 1.90E+06 2u: 6.57E+00 ir: 2.38E-13 iu: 2.02E+00 rsn: rtol
 Step     36 Time=  7.89377E+00 Dt=  8.93774E-01 [d] snes_conv_reason:    3
  newton =   5 [     152] linear =     5 [       152] cuts =  0 [   0]
  --> max chng: dpmx=   2.1248E+04

== RICHARDS FLOW ===============================================================
  0 2r: 6.59E-05 2x: 0.00E+00 2u: 0.00E+00 ir: 9.49E-06 iu: 0.00E+00 rsn:   0
  1 2r: 1.75E-06 2x: 1.91E+06 2u: 1.51E+04 ir: 3.59E-07 iu: 2.01E+03 rsn:   0
  2 2r: 1.92E-09 2x: 1.91E+06 2u: 3.34E+02 ir: 5.66E-10 iu: 6.38E+01 rsn:   0
  3 2r: 3.52E-15 2x: 1.91E+06 2u: 3.21E-01 ir: 1.30E-15 iu: 7.60E-02 rsn: rtol
 Step     37 Time=  8.00000E+00 Dt=  1.06226E-01 [d] snes_conv_reason:    3
  newton =   3 [     155] linear =     3 [       155] cuts =  0 [   0]
  --> max chng: dpmx=   1.9420E+03

== RICHARDS FLOW ===============================================================
  0 2r: 6.56E-05 2x: 0.00E+00 2u: 0.00E+00 ir: 9.28E-06 iu: 0.00E+00 rsn:   0
  1 2r: 5.84E-06 2x: 1.93E+06 2u: 4.56E+04 ir: 1.31E-06 iu: 6.19E+03 rsn:   0
  2 2r: 6.67E-08 2x: 1.92E+06 2u: 2.77E+03 ir: 1.99E-08 iu: 5.69E+02 rsn:   0
  3 2r: 1.12E-11 2x: 1.92E+06 2u: 2.87E+01 ir: 3.94E-12 iu: 7.43E+00 rsn:   0
  4 2r: 3.89E-18 2x: 1.92E+06 2u: 4.17E-03 ir: 7.05E-19 iu: 1.28E-03 rsn: rtol
 Step     38 Time=  8.29495E+00 Dt=  2.94945E-01 [d] snes_conv_reason:    3
  newton =   4 [     159] linear =     4 [       159] cuts =  0 [   0]
  --> max chng: dpmx=   5.6574E+03

== RICHARDS FLOW ===============================================================
  0 2r: 6.47E-05 2x: 0.00E+00 2u: 0.00E+00 ir: 8.72E-06 iu: 0.00E+00 rsn:   0
  1 2r: 1.56E-05 2x: 1.96E+06 2u: 9.97E+04 ir: 3.60E-06 iu: 1.32E+04 rsn:   0
  2 2r: 9.59E-07 2x: 1.96E+06 2u: 1.19E+04 ir: 3.17E-07 iu: 2.22E+03 rsn:   0
  3 2r: 4.49E-09 2x: 1.96E+06 2u: 7.83E+02 ir: 2.17E-09 iu: 1.84E+02 rsn:   0
  4 2r: 1.57E-13 2x: 1.96E+06 2u: 3.37E+00 ir: 9.60E-14 iu: 1.26E+00 rsn: rtol
 Step     39 Time=  8.88484E+00 Dt=  5.89891E-01 [d] snes_conv_reason:    3
  newton =   4 [     163] linear =     4 [       163] cuts =  0 [   0]
  --> max chng: dpmx=   1.1525E+04

== RICHARDS FLOW ===============================================================
  0 2r: 6.31E-05 2x: 0.00E+00 2u: 0.00E+00 ir: 8.29E-06 iu: 0.00E+00 rsn:   0
  1 2r: 1.69E-06 2x: 1.97E+06 2u: 1.63E+04 ir: 3.69E-07 iu: 2.13E+03 rsn:   0
  2 2r: 1.93E-09 2x: 1.97E+06 2u: 3.83E+02 ir: 6.47E-10 iu: 6.31E+01 rsn:   0
  3 2r: 4.10E-15 2x: 1.97E+06 2u: 3.85E-01 ir: 1.83E-15 iu: 1.04E-01 rsn: rtol
 Step     40 Time=  9.00000E+00 Dt=  1.15164E-01 [d] snes_conv_reason:    3
  newton =   3 [     166] linear =     3 [       166] cuts =  0 [   0]
  --> max chng: dpmx=   2.0754E+03

== RICHARDS FLOW ===============================================================
  0 2r: 6.28E-05 2x: 0.00E+00 2u: 0.00E+00 ir: 8.42E-06 iu: 0.00E+00 rsn:   0
  1 2r: 4.21E-05 2x: 2.04E+06 2u: 1.77E+05 ir: 1.09E-05 iu: 2.63E+04 rsn:   0
  2 2r: 8.40E-06 2x: 2.03E+06 2u: 2.99E+04 ir: 2.30E-06 iu: 5.62E+03 rsn:   0
  3 2r: 3.78E-07 2x: 2.03E+06 2u: 1.13E+04 ir: 1.26E-07 iu: 2.37E+03 rsn:   0
  4 2r: 9.90E-10 2x: 2.03E+06 2u: 4.16E+02 ir: 4.10E-10 iu: 1.17E+02 rsn:   0
  5 2r: 8.50E-15 2x: 2.03E+06 2u: 1.13E+00 ir: 4.26E-15 iu: 4.24E-01 rsn: rtol
 Step     41 Time=  1.00000E+01 Dt=  1.00000E+00 [d] snes_conv_reason:    3
  newton =   5 [     171] linear =     5 [       171] cuts =  0 [   0]
  --> max chng: dpmx=   1.9520E+04

 Wall Clock Time:  6.1649E+00 [sec]   1.0275E-01 [min]   1.7125E-03 [hr]
