
=================
  PFLOTRAN v3.0
=================


 *DXYZ 
  dx  
  1.0000E+00  1.0000E+00  1.0000E+00  1.0000E+00  1.0000E+00  1.0000E+00  1.0000E+00  1.0000E+00  1.0000E+00  1.0000E+00
  1.0000E+00  1.0000E+00  1.0000E+00  1.0000E+00  1.0000E+00  1.0000E+00
  dy  
  1.0000E+00  1.0000E+00  1.0000E+00  1.0000E+00  1.0000E+00  1.0000E+00  1.0000E+00  1.0000E+00  1.0000E+00  1.0000E+00
  1.0000E+00  1.0000E+00  1.0000E+00  1.0000E+00  1.0000E+00  1.0000E+00
  dz  
  1.0000E+00  1.0000E+00  1.0000E+00  1.0000E+00  1.0000E+00  1.0000E+00  1.0000E+00  1.0000E+00  1.0000E+00  1.0000E+00
  1.0000E+00  1.0000E+00  1.0000E+00  1.0000E+00  1.0000E+00  1.0000E+00
 Extent of Gridded Domain
  X: 0.0000000000000000 - 16.000000000000000
  Y: 0.0000000000000000 - 16.000000000000000
  Z: 0.0000000000000000 - 16.000000000000000


=+=+=+=+=+=+=+=+=+=+=+=+=+=+=+=+=+=+=+=+=+=+=+=+=+=+=+=+=+=+=+=+=+=+=+=+=+=+=+=+

  Initial Condition

--------------------------------------------------------------------------------
          Flow Condition:   initial_pressure
                  Region:   all
--------------------------------------------------------------------------------

  Flow Condition: initial_pressure
    Synchronize time with update: no
    Time units: yr
    Length units: m
      Datum:

    Sub Condition: pressure
      Type: dirichlet
      Gradient:
      Data:
        Dataset: Unnamed Ascii Dataset
          Type: dataset_ascii_type
          Transient: no
          Array Rank:  1

--------------------------------------------------------------------------------

=+=+=+=+=+=+=+=+=+=+=+=+=+=+=+=+=+=+=+=+=+=+=+=+=+=+=+=+=+=+=+=+=+=+=+=+=+=+=+=+

  Boundary Condition

--------------------------------------------------------------------------------
          Flow Condition:   influx
                  Region:   top_inf
--------------------------------------------------------------------------------

  Flow Condition: influx
    Synchronize time with update: no
    Time units: yr
    Length units: m
      Datum:

    Sub Condition: pressure
      Type: neumann
      Gradient:
      Data:
        Dataset: Unnamed Ascii Dataset
          Type: dataset_ascii_type
          Transient: no
          Array Rank:  1

--------------------------------------------------------------------------------

 Requested processors and decomposition =     1, npx,y,z=   -1  -1  -1
 Actual decomposition: npx,y,z=    1   1   1


FLOW Time Stepper
                 acceleration: on
       acceleration threshold: 5
       number of ramp entries: 5
                ramp entry #1: 2.0000
                ramp entry #2: 2.0000
                ramp entry #3: 2.0000
                ramp entry #4: 2.0000
                ramp entry #5: 2.0000
                ramp entry #6: 1.8000
                ramp entry #7: 1.6000
                ramp entry #8: 1.4000
                ramp entry #9: 1.2000
               ramp entry #10: 1.0000
               ramp entry #11: 1.0000
               ramp entry #12: 1.0000
               ramp entry #13: 1.0000
      maximum number of steps: 999999
constant time steps threshold: 5
       maximum number of cuts: 16
             reduction factor: 5.000000E-01
        maximum growth factor: 2.000000E+00

FLOW Newton Solver
                         atol: 1.000000E-50
                         rtol: 1.000000E-08
                         stol: 1.000000E-08
                         dtol: 1.000000E+04
                      maxnorm: 1.000000E+20
                    inftolres: -9.990000E+02
                    inftolupd: -9.990000E+02
                 inftolrelupd: -9.990000E+02
                 inftolsclres: -9.990000E+02
                     max iter: 50
                     min iter: 1
                         maxf: 10000
                  matrix type: baij
         precond. matrix type: baij
               inexact newton: off
            print convergence: on
   print detailed convergence: off
          check infinity norm: on

FLOW Linear Solver
                       solver: preonly
               preconditioner: lu
                         atol: 1.000000E-50
                         rtol: 1.000000E-05
                         dtol: 1.000000E+04
            maximum iteration: 10000

== RICHARDS FLOW ===============================================================
  0 2r: 1.28E-04 2x: 0.00E+00 2u: 0.00E+00 ir: 6.41E-05 iu: 0.00E+00 rsn:   0
  1 2r: 1.43E+00 2x: 1.47E+06 2u: 6.83E+05 ir: 6.49E-01 iu: 3.58E+05 rsn:  -9
  0 2r: 1.28E-04 2x: 0.00E+00 2u: 0.00E+00 ir: 6.41E-05 iu: 0.00E+00 rsn:   0
  1 2r: 7.28E-01 2x: 1.34E+06 2u: 3.43E+05 ir: 3.30E-01 iu: 1.80E+05 rsn:   0
  2 2r: 2.16E-04 2x: 1.56E+06 2u: 1.19E+06 ir: 9.52E-05 iu: 4.28E+05 rsn:   0
  3 2r: 5.79E+00 2x: 4.31E+06 2u: 4.85E+06 ir: 2.79E+00 iu: 2.21E+06 rsn:  -9
  0 2r: 1.28E-04 2x: 0.00E+00 2u: 0.00E+00 ir: 6.41E-05 iu: 0.00E+00 rsn:   0
  1 2r: 3.30E-01 2x: 1.30E+06 2u: 1.72E+05 ir: 1.69E-01 iu: 9.00E+04 rsn:   0
  2 2r: 3.25E-02 2x: 2.02E+06 2u: 1.58E+06 ir: 2.41E-02 iu: 9.69E+05 rsn:   0
  3 2r: 1.26E-02 2x: 3.42E+06 2u: 1.65E+06 ir: 9.34E-03 iu: 1.16E+06 rsn:   0
  4 2r: 5.46E-03 2x: 3.76E+06 2u: 1.03E+06 ir: 4.01E-03 iu: 8.79E+05 rsn:   0
  5 2r: 2.13E+00 2x: 3.25E+06 2u: 2.49E+06 ir: 1.41E+00 iu: 1.77E+06 rsn:  -9
  0 2r: 1.28E-04 2x: 0.00E+00 2u: 0.00E+00 ir: 6.41E-05 iu: 0.00E+00 rsn:   0
  1 2r: 1.04E-04 2x: 1.29E+06 2u: 8.59E+04 ir: 5.70E-05 iu: 4.51E+04 rsn:   0
  2 2r: 1.91E-05 2x: 1.28E+06 2u: 2.05E+04 ir: 1.12E-05 iu: 1.08E+04 rsn:   0
  3 2r: 9.07E-07 2x: 1.28E+06 2u: 5.55E+03 ir: 5.92E-07 iu: 3.24E+03 rsn:   0
  4 2r: 2.54E-09 2x: 1.28E+06 2u: 2.92E+02 ir: 1.83E-09 iu: 1.91E+02 rsn:   0
  5 2r: 2.29E-14 2x: 1.28E+06 2u: 8.23E-01 ir: 1.77E-14 iu: 5.97E-01 rsn: rtol
 Step      1 Time=  6.25000E-02 Dt=  6.25000E-02 [d] snes_conv_reason:    3
  newton =  14 [      14] linear =    14 [        14] cuts =  3 [   3]
  --> max chng: dpmx=   3.0870E+04

== RICHARDS FLOW ===============================================================
  0 2r: 1.28E-04 2x: 0.00E+00 2u: 0.00E+00 ir: 6.39E-05 iu: 0.00E+00 rsn:   0
  1 2r: 6.51E-05 2x: 1.29E+06 2u: 4.08E+04 ir: 3.45E-05 iu: 2.08E+04 rsn:   0
  2 2r: 7.19E-06 2x: 1.29E+06 2u: 8.95E+03 ir: 4.06E-06 iu: 4.63E+03 rsn:   0
  3 2r: 1.09E-07 2x: 1.29E+06 2u: 1.26E+03 ir: 6.85E-08 iu: 6.97E+02 rsn:   0
  4 2r: 2.88E-11 2x: 1.29E+06 2u: 1.96E+01 ir: 2.01E-11 iu: 1.22E+01 rsn:   0
  5 2r: 9.27E-18 2x: 1.29E+06 2u: 5.15E-03 ir: 2.17E-18 iu: 3.58E-03 rsn: rtol
 Step      2 Time=  1.25000E-01 Dt=  6.25000E-02 [d] snes_conv_reason:    3
  newton =   5 [      19] linear =     5 [        19] cuts =  0 [   3]
  --> max chng: dpmx=   1.5438E+04

== RICHARDS FLOW ===============================================================
  0 2r: 1.26E-04 2x: 0.00E+00 2u: 0.00E+00 ir: 6.31E-05 iu: 0.00E+00 rsn:   0
  1 2r: 4.69E-05 2x: 1.29E+06 2u: 2.25E+04 ir: 2.44E-05 iu: 1.13E+04 rsn:   0
  2 2r: 3.49E-06 2x: 1.29E+06 2u: 4.40E+03 ir: 1.92E-06 iu: 2.22E+03 rsn:   0
  3 2r: 2.22E-08 2x: 1.29E+06 2u: 4.11E+02 ir: 1.35E-08 iu: 2.04E+02 rsn:   0
  4 2r: 9.94E-13 2x: 1.29E+06 2u: 2.56E+00 ir: 6.77E-13 iu: 1.46E+00 rsn: rtol
 Step      3 Time=  1.87500E-01 Dt=  6.25000E-02 [d] snes_conv_reason:    3
  newton =   4 [      23] linear =     4 [        23] cuts =  0 [   3]
  --> max chng: dpmx=   8.9898E+03

== RICHARDS FLOW ===============================================================
  0 2r: 1.21E-04 2x: 0.00E+00 2u: 0.00E+00 ir: 6.09E-05 iu: 0.00E+00 rsn:   0
  1 2r: 3.50E-05 2x: 1.29E+06 2u: 1.43E+04 ir: 1.78E-05 iu: 6.87E+03 rsn:   0
  2 2r: 1.82E-06 2x: 1.29E+06 2u: 2.41E+03 ir: 9.63E-07 iu: 1.15E+03 rsn:   0
  3 2r: 5.33E-09 2x: 1.29E+06 2u: 1.75E+02 ir: 3.09E-09 iu: 6.78E+01 rsn:   0
  4 2r: 4.92E-14 2x: 1.29E+06 2u: 4.78E-01 ir: 3.20E-14 iu: 2.19E-01 rsn: rtol
 Step      4 Time=  2.50000E-01 Dt=  6.25000E-02 [d] snes_conv_reason:    3
  newton =   4 [      27] linear =     4 [        27] cuts =  0 [   3]
  --> max chng: dpmx=   5.6629E+03

== RICHARDS FLOW ===============================================================
  0 2r: 1.11E-04 2x: 0.00E+00 2u: 0.00E+00 ir: 5.67E-05 iu: 0.00E+00 rsn:   0
  1 2r: 2.48E-05 2x: 1.29E+06 2u: 1.30E+04 ir: 1.23E-05 iu: 4.33E+03 rsn:   0
  2 2r: 8.60E-07 2x: 1.29E+06 2u: 1.32E+03 ir: 4.27E-07 iu: 6.23E+02 rsn:   0
  3 2r: 1.07E-09 2x: 1.29E+06 2u: 7.48E+01 ir: 5.62E-10 iu: 2.19E+01 rsn:   0
  4 2r: 1.71E-15 2x: 1.29E+06 2u: 8.58E-02 ir: 9.74E-16 iu: 2.82E-02 rsn: rtol
 Step      5 Time=  3.12500E-01 Dt=  6.25000E-02 [d] snes_conv_reason:    3
  newton =   4 [      31] linear =     4 [        31] cuts =  0 [   3]
  --> max chng: dpmx=   3.6841E+03

== RICHARDS FLOW ===============================================================
  0 2r: 9.79E-05 2x: 0.00E+00 2u: 0.00E+00 ir: 5.02E-05 iu: 0.00E+00 rsn:   0
  1 2r: 1.57E-05 2x: 1.29E+06 2u: 1.60E+04 ir: 8.29E-06 iu: 4.86E+03 rsn:   0
  2 2r: 3.34E-07 2x: 1.29E+06 2u: 6.22E+02 ir: 1.75E-07 iu: 3.29E+02 rsn:   0
  3 2r: 1.50E-10 2x: 1.29E+06 2u: 2.57E+01 ir: 8.23E-11 iu: 7.33E+00 rsn:   0
  4 2r: 3.32E-17 2x: 1.29E+06 2u: 1.10E-02 ir: 1.89E-17 iu: 3.37E-03 rsn: rtol
 Step      6 Time=  3.75000E-01 Dt=  6.25000E-02 [d] snes_conv_reason:    3
  newton =   4 [      35] linear =     4 [        35] cuts =  0 [   3]
  --> max chng: dpmx=   4.7979E+03

== RICHARDS FLOW ===============================================================
  0 2r: 8.43E-05 2x: 0.00E+00 2u: 0.00E+00 ir: 4.24E-05 iu: 0.00E+00 rsn:   0
  1 2r: 1.93E-05 2x: 1.30E+06 2u: 4.23E+04 ir: 1.11E-05 iu: 1.31E+04 rsn:   0
  2 2r: 7.98E-07 2x: 1.30E+06 2u: 4.25E+03 ir: 4.94E-07 iu: 1.43E+03 rsn:   0
  3 2r: 1.60E-09 2x: 1.30E+06 2u: 5.71E+01 ir: 1.11E-09 iu: 2.23E+01 rsn:   0
  4 2r: 7.00E-15 2x: 1.30E+06 2u: 1.75E-01 ir: 5.66E-15 iu: 7.34E-02 rsn: rtol
 Step      7 Time=  5.00000E-01 Dt=  1.25000E-01 [d] snes_conv_reason:    3
  newton =   4 [      39] linear =     4 [        39] cuts =  0 [   3]
  --> max chng: dpmx=   1.1626E+04

== RICHARDS FLOW ===============================================================
  0 2r: 6.92E-05 2x: 0.00E+00 2u: 0.00E+00 ir: 2.97E-05 iu: 0.00E+00 rsn:   0
  1 2r: 3.14E-05 2x: 1.31E+06 2u: 8.27E+04 ir: 1.24E-05 iu: 2.55E+04 rsn:   0
  2 2r: 4.15E-06 2x: 1.31E+06 2u: 1.78E+04 ir: 1.80E-06 iu: 5.54E+03 rsn:   0
  3 2r: 6.96E-08 2x: 1.31E+06 2u: 2.75E+03 ir: 3.71E-08 iu: 9.45E+02 rsn:   0
  4 2r: 2.20E-11 2x: 1.31E+06 2u: 4.39E+01 ir: 1.56E-11 iu: 2.00E+01 rsn:   0
  5 2r: 3.85E-18 2x: 1.31E+06 2u: 1.32E-02 ir: 2.71E-18 iu: 8.22E-03 rsn: rtol
 Step      8 Time=  7.50000E-01 Dt=  2.50000E-01 [d] snes_conv_reason:    3
  newton =   5 [      44] linear =     5 [        44] cuts =  0 [   3]
  --> max chng: dpmx=   1.9033E+04

== RICHARDS FLOW ===============================================================
  0 2r: 6.29E-05 2x: 0.00E+00 2u: 0.00E+00 ir: 2.02E-05 iu: 0.00E+00 rsn:   0
  1 2r: 5.97E-06 2x: 1.31E+06 2u: 1.60E+04 ir: 2.28E-06 iu: 4.85E+03 rsn:   0
  2 2r: 5.22E-08 2x: 1.31E+06 2u: 1.30E+03 ir: 2.20E-08 iu: 4.18E+02 rsn:   0
  3 2r: 3.85E-12 2x: 1.31E+06 2u: 1.09E+01 ir: 1.93E-12 iu: 3.96E+00 rsn:   0
  4 2r: 7.79E-18 2x: 1.31E+06 2u: 7.70E-04 ir: 8.67E-19 iu: 3.39E-04 rsn: rtol
 Step      9 Time=  8.32500E-01 Dt=  8.25000E-02 [d] snes_conv_reason:    3
  newton =   4 [      48] linear =     4 [        48] cuts =  0 [   3]
  --> max chng: dpmx=   4.4260E+03

== RICHARDS FLOW ===============================================================
  0 2r: 6.20E-05 2x: 0.00E+00 2u: 0.00E+00 ir: 2.10E-05 iu: 0.00E+00 rsn:   0
  1 2r: 1.48E-05 2x: 1.31E+06 2u: 2.77E+04 ir: 5.79E-06 iu: 8.24E+03 rsn:   0
  2 2r: 5.43E-07 2x: 1.31E+06 2u: 4.00E+03 ir: 2.32E-07 iu: 1.28E+03 rsn:   0
  3 2r: 7.57E-10 2x: 1.31E+06 2u: 1.65E+02 ir: 3.79E-10 iu: 5.51E+01 rsn:   0
  4 2r: 1.73E-15 2x: 1.31E+06 2u: 2.10E-01 ir: 9.97E-16 iu: 9.17E-02 rsn: rtol
 Step     10 Time=  9.97500E-01 Dt=  1.65000E-01 [d] snes_conv_reason:    3
  newton =   4 [      52] linear =     4 [        52] cuts =  0 [   3]
  --> max chng: dpmx=   6.9012E+03

== RICHARDS FLOW ===============================================================
  0 2r: 5.93E-05 2x: 0.00E+00 2u: 0.00E+00 ir: 2.10E-05 iu: 0.00E+00 rsn:   0
  1 2r: 3.84E-05 2x: 1.32E+06 2u: 4.92E+04 ir: 1.53E-05 iu: 1.07E+04 rsn:   0
  2 2r: 5.08E-06 2x: 1.32E+06 2u: 7.44E+03 ir: 2.12E-06 iu: 2.33E+03 rsn:   0
  3 2r: 1.12E-07 2x: 1.32E+06 2u: 2.36E+03 ir: 5.77E-08 iu: 6.31E+02 rsn:   0
  4 2r: 6.58E-11 2x: 1.32E+06 2u: 4.07E+01 ir: 4.16E-11 iu: 1.23E+01 rsn:   0
  5 2r: 2.64E-17 2x: 1.32E+06 2u: 2.38E-02 ir: 2.08E-17 iu: 8.74E-03 rsn: rtol
 Step     11 Time=  1.32750E+00 Dt=  3.30000E-01 [d] snes_conv_reason:    3
  newton =   5 [      57] linear =     5 [        57] cuts =  0 [   3]
  --> max chng: dpmx=   1.0586E+04

== RICHARDS FLOW ===============================================================
  0 2r: 5.09E-05 2x: 0.00E+00 2u: 0.00E+00 ir: 1.80E-05 iu: 0.00E+00 rsn:   0
  1 2r: 3.93E-06 2x: 1.33E+06 2u: 1.56E+04 ir: 1.62E-06 iu: 3.81E+03 rsn:   0
  2 2r: 2.32E-08 2x: 1.33E+06 2u: 5.25E+02 ir: 1.02E-08 iu: 1.34E+02 rsn:   0
  3 2r: 8.48E-13 2x: 1.33E+06 2u: 2.72E+00 ir: 4.28E-13 iu: 8.54E-01 rsn:   0
  4 2r: 5.42E-18 2x: 1.33E+06 2u: 1.03E-04 ir: 5.42E-19 iu: 3.69E-05 rsn: rtol
 Step     12 Time=  1.43640E+00 Dt=  1.08900E-01 [d] snes_conv_reason:    3
  newton =   4 [      61] linear =     4 [        61] cuts =  0 [   3]
  --> max chng: dpmx=   3.6857E+03

== RICHARDS FLOW ===============================================================
  0 2r: 4.79E-05 2x: 0.00E+00 2u: 0.00E+00 ir: 1.65E-05 iu: 0.00E+00 rsn:   0
  1 2r: 6.92E-06 2x: 1.33E+06 2u: 3.68E+04 ir: 2.83E-06 iu: 9.17E+03 rsn:   0
  2 2r: 1.18E-07 2x: 1.33E+06 2u: 2.76E+03 ir: 5.47E-08 iu: 8.35E+02 rsn:   0
  3 2r: 3.99E-11 2x: 1.33E+06 2u: 2.79E+01 ir: 2.17E-11 iu: 8.98E+00 rsn:   0
  4 2r: 6.07E-18 2x: 1.33E+06 2u: 7.13E-03 ir: 3.20E-18 iu: 2.91E-03 rsn: rtol
 Step     13 Time=  1.65420E+00 Dt=  2.17800E-01 [d] snes_conv_reason:    3
  newton =   4 [      65] linear =     4 [        65] cuts =  0 [   3]
  --> max chng: dpmx=   8.3308E+03

== RICHARDS FLOW ===============================================================
  0 2r: 4.41E-05 2x: 0.00E+00 2u: 0.00E+00 ir: 1.36E-05 iu: 0.00E+00 rsn:   0
  1 2r: 1.30E-05 2x: 1.35E+06 2u: 7.77E+04 ir: 3.70E-06 iu: 1.82E+04 rsn:   0
  2 2r: 9.70E-07 2x: 1.35E+06 2u: 1.32E+04 ir: 3.53E-07 iu: 3.63E+03 rsn:   0
  3 2r: 6.51E-09 2x: 1.35E+06 2u: 1.09E+03 ir: 2.92E-09 iu: 3.72E+02 rsn:   0
  4 2r: 3.00E-13 2x: 1.35E+06 2u: 6.66E+00 ir: 1.72E-13 iu: 2.97E+00 rsn: rtol
 Step     14 Time=  2.08980E+00 Dt=  4.35600E-01 [d] snes_conv_reason:    3
  newton =   4 [      69] linear =     4 [        69] cuts =  0 [   3]
  --> max chng: dpmx=   1.4526E+04

== RICHARDS FLOW ===============================================================
  0 2r: 4.14E-05 2x: 0.00E+00 2u: 0.00E+00 ir: 1.02E-05 iu: 0.00E+00 rsn:   0
  1 2r: 7.42E-05 2x: 1.38E+06 2u: 1.19E+05 ir: 2.17E-05 iu: 2.86E+04 rsn:   0
  2 2r: 2.28E-05 2x: 1.37E+06 2u: 2.87E+04 ir: 6.80E-06 iu: 5.82E+03 rsn:   0
  3 2r: 3.17E-06 2x: 1.37E+06 2u: 2.75E+04 ir: 1.16E-06 iu: 6.50E+03 rsn:   0
  4 2r: 8.77E-08 2x: 1.37E+06 2u: 3.41E+03 ir: 4.20E-08 iu: 8.63E+02 rsn:   0
  5 2r: 7.96E-11 2x: 1.37E+06 2u: 9.17E+01 ir: 5.33E-11 iu: 3.10E+01 rsn:   0
  6 2r: 9.19E-17 2x: 1.37E+06 2u: 8.19E-02 ir: 8.13E-17 iu: 3.83E-02 rsn: rtol
 Step     15 Time=  2.96100E+00 Dt=  8.71200E-01 [d] snes_conv_reason:    3
  newton =   6 [      75] linear =     6 [        75] cuts =  0 [   3]
  --> max chng: dpmx=   1.8596E+04

== RICHARDS FLOW ===============================================================
  0 2r: 3.72E-05 2x: 0.00E+00 2u: 0.00E+00 ir: 1.00E-05 iu: 0.00E+00 rsn:   0
  1 2r: 4.65E-06 2x: 1.38E+06 2u: 2.79E+04 ir: 1.61E-06 iu: 5.56E+03 rsn:   0
  2 2r: 7.02E-08 2x: 1.38E+06 2u: 1.66E+03 ir: 2.77E-08 iu: 4.36E+02 rsn:   0
  3 2r: 1.61E-11 2x: 1.38E+06 2u: 2.51E+01 ir: 7.86E-12 iu: 7.37E+00 rsn:   0
  4 2r: 2.60E-18 2x: 1.38E+06 2u: 5.38E-03 ir: 7.05E-19 iu: 2.08E-03 rsn: rtol
 Step     16 Time=  3.24850E+00 Dt=  2.87496E-01 [d] snes_conv_reason:    3
  newton =   4 [      79] linear =     4 [        79] cuts =  0 [   3]
  --> max chng: dpmx=   5.2826E+03

== RICHARDS FLOW ===============================================================
  0 2r: 3.53E-05 2x: 0.00E+00 2u: 0.00E+00 ir: 9.74E-06 iu: 0.00E+00 rsn:   0
  1 2r: 9.20E-06 2x: 1.39E+06 2u: 6.43E+04 ir: 3.54E-06 iu: 1.28E+04 rsn:   0
  2 2r: 4.55E-07 2x: 1.39E+06 2u: 6.82E+03 ir: 2.03E-07 iu: 1.88E+03 rsn:   0
  3 2r: 1.35E-09 2x: 1.39E+06 2u: 2.51E+02 ir: 6.84E-10 iu: 8.31E+01 rsn:   0
  4 2r: 1.35E-14 2x: 1.39E+06 2u: 6.36E-01 ir: 7.72E-15 iu: 2.30E-01 rsn: rtol
 Step     17 Time=  3.82349E+00 Dt=  5.74992E-01 [d] snes_conv_reason:    3
  newton =   4 [      83] linear =     4 [        83] cuts =  0 [   3]
  --> max chng: dpmx=   1.1186E+04

== RICHARDS FLOW ===============================================================
  0 2r: 3.26E-05 2x: 0.00E+00 2u: 0.00E+00 ir: 8.49E-06 iu: 0.00E+00 rsn:   0
  1 2r: 1.63E-05 2x: 1.43E+06 2u: 1.13E+05 ir: 4.01E-06 iu: 2.31E+04 rsn:   0
  2 2r: 2.35E-06 2x: 1.42E+06 2u: 2.16E+04 ir: 7.13E-07 iu: 4.62E+03 rsn:   0
  3 2r: 5.46E-08 2x: 1.42E+06 2u: 4.71E+03 ir: 2.09E-08 iu: 1.15E+03 rsn:   0
  4 2r: 3.10E-11 2x: 1.42E+06 2u: 8.83E+01 ir: 1.57E-11 iu: 2.74E+01 rsn:   0
  5 2r: 1.17E-17 2x: 1.42E+06 2u: 5.11E-02 ir: 8.62E-18 iu: 2.03E-02 rsn: rtol
 Step     18 Time=  4.82349E+00 Dt=  1.00000E+00 [d] snes_conv_reason:    3
  newton =   5 [      88] linear =     5 [        88] cuts =  0 [   3]
  --> max chng: dpmx=   1.7859E+04

== RICHARDS FLOW ===============================================================
  0 2r: 3.03E-05 2x: 0.00E+00 2u: 0.00E+00 ir: 6.64E-06 iu: 0.00E+00 rsn:   0
  1 2r: 2.59E-06 2x: 1.43E+06 2u: 2.65E+04 ir: 6.66E-07 iu: 4.96E+03 rsn:   0
  2 2r: 2.25E-08 2x: 1.43E+06 2u: 1.67E+03 ir: 6.69E-09 iu: 4.06E+02 rsn:   0
  3 2r: 1.78E-12 2x: 1.43E+06 2u: 1.42E+01 ir: 5.77E-13 iu: 3.93E+00 rsn:   0
  4 2r: 2.23E-18 2x: 1.43E+06 2u: 1.07E-03 ir: 6.51E-19 iu: 3.61E-04 rsn: rtol
 Step     19 Time=  5.15349E+00 Dt=  3.30000E-01 [d] snes_conv_reason:    3
  newton =   4 [      92] linear =     4 [        92] cuts =  0 [   3]
  --> max chng: dpmx=   4.5578E+03

== RICHARDS FLOW ===============================================================
  0 2r: 2.95E-05 2x: 0.00E+00 2u: 0.00E+00 ir: 6.04E-06 iu: 0.00E+00 rsn:   0
  1 2r: 6.60E-06 2x: 1.45E+06 2u: 5.52E+04 ir: 1.76E-06 iu: 9.07E+03 rsn:   0
  2 2r: 2.90E-07 2x: 1.44E+06 2u: 5.46E+03 ir: 8.55E-08 iu: 1.42E+03 rsn:   0
  3 2r: 5.58E-10 2x: 1.44E+06 2u: 2.89E+02 ir: 2.29E-10 iu: 7.34E+01 rsn:   0
  4 2r: 2.78E-15 2x: 1.44E+06 2u: 5.44E-01 ir: 1.57E-15 iu: 1.95E-01 rsn: rtol
 Step     20 Time=  5.81349E+00 Dt=  6.60000E-01 [d] snes_conv_reason:    3
  newton =   4 [      96] linear =     4 [        96] cuts =  0 [   3]
  --> max chng: dpmx=   8.3990E+03

== RICHARDS FLOW ===============================================================
  0 2r: 2.78E-05 2x: 0.00E+00 2u: 0.00E+00 ir: 5.52E-06 iu: 0.00E+00 rsn:   0
  1 2r: 9.27E-06 2x: 1.47E+06 2u: 9.06E+04 ir: 2.93E-06 iu: 1.59E+04 rsn:   0
  2 2r: 7.36E-07 2x: 1.47E+06 2u: 1.11E+04 ir: 2.93E-07 iu: 2.58E+03 rsn:   0
  3 2r: 6.08E-09 2x: 1.47E+06 2u: 7.61E+02 ir: 2.95E-09 iu: 2.66E+02 rsn:   0
  4 2r: 5.57E-13 2x: 1.47E+06 2u: 5.83E+00 ir: 2.98E-13 iu: 1.90E+00 rsn:   0
  5 2r: 1.14E-18 2x: 1.47E+06 2u: 5.31E-04 ir: 5.42E-19 iu: 2.01E-04 rsn: rtol
 Step     21 Time=  6.81349E+00 Dt=  1.00000E+00 [d] snes_conv_reason:    3
  newton =   5 [     101] linear =     5 [       101] cuts =  0 [   3]
  --> max chng: dpmx=   1.3621E+04

== RICHARDS FLOW ===============================================================
  0 2r: 2.57E-05 2x: 0.00E+00 2u: 0.00E+00 ir: 4.73E-06 iu: 0.00E+00 rsn:   0
  1 2r: 1.40E-06 2x: 1.48E+06 2u: 2.52E+04 ir: 3.62E-07 iu: 4.23E+03 rsn:   0
  2 2r: 4.94E-09 2x: 1.48E+06 2u: 1.13E+03 ir: 1.76E-09 iu: 2.39E+02 rsn:   0
  3 2r: 8.67E-14 2x: 1.48E+06 2u: 3.56E+00 ir: 3.76E-14 iu: 1.08E+00 rsn: rtol
 Step     22 Time=  7.14349E+00 Dt=  3.30000E-01 [d] snes_conv_reason:    3
  newton =   3 [     104] linear =     3 [       104] cuts =  0 [   3]
  --> max chng: dpmx=   4.0037E+03

== RICHARDS FLOW ===============================================================
  0 2r: 2.52E-05 2x: 0.00E+00 2u: 0.00E+00 ir: 4.42E-06 iu: 0.00E+00 rsn:   0
  1 2r: 3.23E-06 2x: 1.50E+06 2u: 5.20E+04 ir: 7.64E-07 iu: 8.92E+03 rsn:   0
  2 2r: 6.16E-08 2x: 1.49E+06 2u: 5.00E+03 ir: 2.00E-08 iu: 1.07E+03 rsn:   0
  3 2r: 2.99E-11 2x: 1.49E+06 2u: 9.91E+01 ir: 1.06E-11 iu: 2.66E+01 rsn:   0
  4 2r: 7.69E-18 2x: 1.49E+06 2u: 4.54E-02 ir: 3.18E-18 iu: 1.57E-02 rsn: rtol
 Step     23 Time=  7.80349E+00 Dt=  6.60000E-01 [d] snes_conv_reason:    3
  newton =   4 [     108] linear =     4 [       108] cuts =  0 [   3]
  --> max chng: dpmx=   8.0500E+03

== RICHARDS FLOW ===============================================================
  0 2r: 2.44E-05 2x: 0.00E+00 2u: 0.00E+00 ir: 3.90E-06 iu: 0.00E+00 rsn:   0
  1 2r: 6.27E-06 2x: 1.52E+06 2u: 7.50E+04 ir: 1.45E-06 iu: 1.35E+04 rsn:   0
  2 2r: 3.87E-07 2x: 1.52E+06 2u: 9.88E+03 ir: 1.08E-07 iu: 2.20E+03 rsn:   0
  3 2r: 1.50E-09 2x: 1.52E+06 2u: 7.29E+02 ir: 5.14E-10 iu: 1.48E+02 rsn:   0
  4 2r: 2.64E-14 2x: 1.52E+06 2u: 2.57E+00 ir: 1.08E-14 iu: 6.72E-01 rsn: rtol
 Step     24 Time=  8.80349E+00 Dt=  1.00000E+00 [d] snes_conv_reason:    3
  newton =   4 [     112] linear =     4 [       112] cuts =  0 [   3]
  --> max chng: dpmx=   1.1168E+04

== RICHARDS FLOW ===============================================================
  0 2r: 2.32E-05 2x: 0.00E+00 2u: 0.00E+00 ir: 3.64E-06 iu: 0.00E+00 rsn:   0
  1 2r: 5.27E-06 2x: 1.54E+06 2u: 7.10E+04 ir: 1.27E-06 iu: 1.10E+04 rsn:   0
  2 2r: 2.68E-07 2x: 1.54E+06 2u: 6.89E+03 ir: 8.28E-08 iu: 1.67E+03 rsn:   0
  3 2r: 7.41E-10 2x: 1.54E+06 2u: 3.92E+02 ir: 3.12E-10 iu: 1.05E+02 rsn:   0
  4 2r: 7.83E-15 2x: 1.54E+06 2u: 1.09E+00 ir: 4.22E-15 iu: 3.95E-01 rsn: rtol
 Step     25 Time=  9.80349E+00 Dt=  1.00000E+00 [d] snes_conv_reason:    3
  newton =   4 [     116] linear =     4 [       116] cuts =  0 [   3]
  --> max chng: dpmx=   1.0032E+04

== RICHARDS FLOW ===============================================================
  0 2r: 2.19E-05 2x: 0.00E+00 2u: 0.00E+00 ir: 3.42E-06 iu: 0.00E+00 rsn:   0
  1 2r: 3.80E-06 2x: 1.57E+06 2u: 7.12E+04 ir: 1.12E-06 iu: 1.12E+04 rsn:   0
  2 2r: 1.29E-07 2x: 1.57E+06 2u: 6.66E+03 ir: 5.44E-08 iu: 1.46E+03 rsn:   0
  3 2r: 2.09E-10 2x: 1.57E+06 2u: 1.68E+02 ir: 1.14E-10 iu: 4.57E+01 rsn:   0
  4 2r: 7.75E-16 2x: 1.57E+06 2u: 2.46E-01 ir: 4.88E-16 iu: 9.34E-02 rsn: rtol
 Step     26 Time=  1.08035E+01 Dt=  1.00000E+00 [d] snes_conv_reason:    3
  newton =   4 [     120] linear =     4 [       120] cuts =  0 [   3]
  --> max chng: dpmx=   9.8169E+03

== RICHARDS FLOW ===============================================================
  0 2r: 2.08E-05 2x: 0.00E+00 2u: 0.00E+00 ir: 3.27E-06 iu: 0.00E+00 rsn:   0
  1 2r: 3.11E-06 2x: 1.59E+06 2u: 6.80E+04 ir: 7.75E-07 iu: 1.06E+04 rsn:   0
  2 2r: 8.03E-08 2x: 1.59E+06 2u: 6.95E+03 ir: 2.45E-08 iu: 1.40E+03 rsn:   0
  3 2r: 7.18E-11 2x: 1.59E+06 2u: 1.89E+02 ir: 2.97E-11 iu: 4.69E+01 rsn:   0
  4 2r: 7.08E-17 2x: 1.59E+06 2u: 1.58E-01 ir: 3.68E-17 iu: 5.42E-02 rsn: rtol
 Step     27 Time=  1.18035E+01 Dt=  1.00000E+00 [d] snes_conv_reason:    3
  newton =   4 [     124] linear =     4 [       124] cuts =  0 [   3]
  --> max chng: dpmx=   9.1813E+03

== RICHARDS FLOW ===============================================================
  0 2r: 2.01E-05 2x: 0.00E+00 2u: 0.00E+00 ir: 2.99E-06 iu: 0.00E+00 rsn:   0
  1 2r: 3.03E-06 2x: 1.61E+06 2u: 6.30E+04 ir: 6.34E-07 iu: 9.55E+03 rsn:   0
  2 2r: 8.83E-08 2x: 1.61E+06 2u: 6.16E+03 ir: 2.38E-08 iu: 1.21E+03 rsn:   0
  3 2r: 8.70E-11 2x: 1.61E+06 2u: 1.85E+02 ir: 3.12E-11 iu: 4.44E+01 rsn:   0
  4 2r: 9.87E-17 2x: 1.61E+06 2u: 1.69E-01 ir: 4.64E-17 iu: 5.55E-02 rsn: rtol
 Step     28 Time=  1.28035E+01 Dt=  1.00000E+00 [d] snes_conv_reason:    3
  newton =   4 [     128] linear =     4 [       128] cuts =  0 [   3]
  --> max chng: dpmx=   8.5660E+03

== RICHARDS FLOW ===============================================================
  0 2r: 1.95E-05 2x: 0.00E+00 2u: 0.00E+00 ir: 2.70E-06 iu: 0.00E+00 rsn:   0
  1 2r: 2.81E-06 2x: 1.64E+06 2u: 6.01E+04 ir: 6.46E-07 iu: 8.82E+03 rsn:   0
  2 2r: 7.43E-08 2x: 1.63E+06 2u: 4.96E+03 ir: 2.13E-08 iu: 1.06E+03 rsn:   0
  3 2r: 5.55E-11 2x: 1.63E+06 2u: 1.28E+02 ir: 1.91E-11 iu: 2.67E+01 rsn:   0
  4 2r: 3.72E-17 2x: 1.63E+06 2u: 8.87E-02 ir: 1.61E-17 iu: 2.39E-02 rsn: rtol
 Step     29 Time=  1.38035E+01 Dt=  1.00000E+00 [d] snes_conv_reason:    3
  newton =   4 [     132] linear =     4 [       132] cuts =  0 [   3]
  --> max chng: dpmx=   7.8377E+03

== RICHARDS FLOW ===============================================================
  0 2r: 1.88E-05 2x: 0.00E+00 2u: 0.00E+00 ir: 2.63E-06 iu: 0.00E+00 rsn:   0
  1 2r: 2.38E-06 2x: 1.66E+06 2u: 5.95E+04 ir: 5.37E-07 iu: 8.92E+03 rsn:   0
  2 2r: 4.99E-08 2x: 1.66E+06 2u: 4.38E+03 ir: 1.49E-08 iu: 9.16E+02 rsn:   0
  3 2r: 2.44E-11 2x: 1.66E+06 2u: 7.84E+01 ir: 1.05E-11 iu: 2.38E+01 rsn:   0
  4 2r: 7.73E-18 2x: 1.66E+06 2u: 3.82E-02 ir: 4.80E-18 iu: 1.63E-02 rsn: rtol
 Step     30 Time=  1.48035E+01 Dt=  1.00000E+00 [d] snes_conv_reason:    3
  newton =   4 [     136] linear =     4 [       136] cuts =  0 [   3]
  --> max chng: dpmx=   7.9884E+03

== RICHARDS FLOW ===============================================================
  0 2r: 1.81E-05 2x: 0.00E+00 2u: 0.00E+00 ir: 2.51E-06 iu: 0.00E+00 rsn:   0
  1 2r: 2.03E-06 2x: 1.68E+06 2u: 5.88E+04 ir: 5.09E-07 iu: 8.15E+03 rsn:   0
  2 2r: 3.41E-08 2x: 1.68E+06 2u: 4.39E+03 ir: 1.25E-08 iu: 9.34E+02 rsn:   0
  3 2r: 1.37E-11 2x: 1.68E+06 2u: 6.31E+01 ir: 6.53E-12 iu: 2.12E+01 rsn:   0
  4 2r: 3.15E-18 2x: 1.68E+06 2u: 2.39E-02 ir: 1.72E-18 iu: 1.04E-02 rsn: rtol
 Step     31 Time=  1.58035E+01 Dt=  1.00000E+00 [d] snes_conv_reason:    3
  newton =   4 [     140] linear =     4 [       140] cuts =  0 [   3]
  --> max chng: dpmx=   7.2258E+03

== RICHARDS FLOW ===============================================================
  0 2r: 1.76E-05 2x: 0.00E+00 2u: 0.00E+00 ir: 2.49E-06 iu: 0.00E+00 rsn:   0
  1 2r: 1.86E-06 2x: 1.70E+06 2u: 5.69E+04 ir: 4.29E-07 iu: 7.85E+03 rsn:   0
  2 2r: 2.81E-08 2x: 1.70E+06 2u: 4.34E+03 ir: 8.86E-09 iu: 7.74E+02 rsn:   0
  3 2r: 9.07E-12 2x: 1.70E+06 2u: 6.23E+01 ir: 4.12E-12 iu: 1.64E+01 rsn:   0
  4 2r: 1.65E-18 2x: 1.70E+06 2u: 1.75E-02 ir: 7.59E-19 iu: 7.47E-03 rsn: rtol
 Step     32 Time=  1.68035E+01 Dt=  1.00000E+00 [d] snes_conv_reason:    3
  newton =   4 [     144] linear =     4 [       144] cuts =  0 [   3]
  --> max chng: dpmx=   7.1206E+03

== RICHARDS FLOW ===============================================================
  0 2r: 1.72E-05 2x: 0.00E+00 2u: 0.00E+00 ir: 2.40E-06 iu: 0.00E+00 rsn:   0
  1 2r: 1.77E-06 2x: 1.72E+06 2u: 5.47E+04 ir: 3.71E-07 iu: 7.25E+03 rsn:   0
  2 2r: 2.61E-08 2x: 1.72E+06 2u: 3.98E+03 ir: 7.52E-09 iu: 7.47E+02 rsn:   0
  3 2r: 6.59E-12 2x: 1.72E+06 2u: 5.76E+01 ir: 2.46E-12 iu: 1.24E+01 rsn:   0
  4 2r: 1.41E-18 2x: 1.72E+06 2u: 1.36E-02 ir: 4.74E-19 iu: 3.43E-03 rsn: rtol
 Step     33 Time=  1.78035E+01 Dt=  1.00000E+00 [d] snes_conv_reason:    3
  newton =   4 [     148] linear =     4 [       148] cuts =  0 [   3]
  --> max chng: dpmx=   6.5083E+03

== RICHARDS FLOW ===============================================================
  0 2r: 1.68E-05 2x: 0.00E+00 2u: 0.00E+00 ir: 2.27E-06 iu: 0.00E+00 rsn:   0
  1 2r: 1.67E-06 2x: 1.74E+06 2u: 5.30E+04 ir: 3.25E-07 iu: 7.04E+03 rsn:   0
  2 2r: 2.35E-08 2x: 1.74E+06 2u: 3.53E+03 ir: 6.14E-09 iu: 6.47E+02 rsn:   0
  3 2r: 5.40E-12 2x: 1.74E+06 2u: 4.63E+01 ir: 1.79E-12 iu: 1.10E+01 rsn:   0
  4 2r: 1.29E-18 2x: 1.74E+06 2u: 1.03E-02 ir: 4.47E-19 iu: 3.15E-03 rsn: rtol
 Step     34 Time=  1.88035E+01 Dt=  1.00000E+00 [d] snes_conv_reason:    3
  newton =   4 [     152] linear =     4 [       152] cuts =  0 [   3]
  --> max chng: dpmx=   6.4715E+03

== RICHARDS FLOW ===============================================================
  0 2r: 1.64E-05 2x: 0.00E+00 2u: 0.00E+00 ir: 2.13E-06 iu: 0.00E+00 rsn:   0
  1 2r: 1.53E-06 2x: 1.76E+06 2u: 5.21E+04 ir: 3.25E-07 iu: 6.73E+03 rsn:   0
  2 2r: 1.92E-08 2x: 1.76E+06 2u: 3.20E+03 ir: 5.47E-09 iu: 6.15E+02 rsn:   0
  3 2r: 3.68E-12 2x: 1.76E+06 2u: 3.49E+01 ir: 1.27E-12 iu: 7.78E+00 rsn:   0
  4 2r: 1.06E-18 2x: 1.76E+06 2u: 6.16E-03 ir: 2.85E-19 iu: 1.71E-03 rsn: rtol
 Step     35 Time=  1.98035E+01 Dt=  1.00000E+00 [d] snes_conv_reason:    3
  newton =   4 [     156] linear =     4 [       156] cuts =  0 [   3]
  --> max chng: dpmx=   6.1499E+03

== RICHARDS FLOW ===============================================================
  0 2r: 1.60E-05 2x: 0.00E+00 2u: 0.00E+00 ir: 2.04E-06 iu: 0.00E+00 rsn:   0
  1 2r: 1.38E-06 2x: 1.78E+06 2u: 5.14E+04 ir: 2.87E-07 iu: 6.69E+03 rsn:   0
  2 2r: 1.49E-08 2x: 1.78E+06 2u: 3.05E+03 ir: 3.88E-09 iu: 5.69E+02 rsn:   0
  3 2r: 2.16E-12 2x: 1.78E+06 2u: 2.84E+01 ir: 7.38E-13 iu: 7.88E+00 rsn:   0
  4 2r: 1.30E-18 2x: 1.78E+06 2u: 3.86E-03 ir: 5.42E-19 iu: 1.52E-03 rsn: rtol
 Step     36 Time=  2.08035E+01 Dt=  1.00000E+00 [d] snes_conv_reason:    3
  newton =   4 [     160] linear =     4 [       160] cuts =  0 [   3]
  --> max chng: dpmx=   6.1664E+03

== RICHARDS FLOW ===============================================================
  0 2r: 1.57E-05 2x: 0.00E+00 2u: 0.00E+00 ir: 1.96E-06 iu: 0.00E+00 rsn:   0
  1 2r: 1.27E-06 2x: 1.80E+06 2u: 5.05E+04 ir: 2.66E-07 iu: 6.34E+03 rsn:   0
  2 2r: 1.23E-08 2x: 1.80E+06 2u: 3.00E+03 ir: 3.85E-09 iu: 5.58E+02 rsn:   0
  3 2r: 1.59E-12 2x: 1.80E+06 2u: 2.52E+01 ir: 6.78E-13 iu: 6.36E+00 rsn:   0
  4 2r: 1.26E-18 2x: 1.80E+06 2u: 3.12E-03 ir: 3.79E-19 iu: 1.08E-03 rsn: rtol
 Step     37 Time=  2.18035E+01 Dt=  1.00000E+00 [d] snes_conv_reason:    3
  newton =   4 [     164] linear =     4 [       164] cuts =  0 [   3]
  --> max chng: dpmx=   5.7779E+03

== RICHARDS FLOW ===============================================================
  0 2r: 1.54E-05 2x: 0.00E+00 2u: 0.00E+00 ir: 1.91E-06 iu: 0.00E+00 rsn:   0
  1 2r: 1.20E-06 2x: 1.82E+06 2u: 4.93E+04 ir: 2.54E-07 iu: 6.20E+03 rsn:   0
  2 2r: 1.08E-08 2x: 1.82E+06 2u: 2.92E+03 ir: 3.20E-09 iu: 5.09E+02 rsn:   0
  3 2r: 1.25E-12 2x: 1.82E+06 2u: 2.32E+01 ir: 4.51E-13 iu: 6.10E+00 rsn:   0
  4 2r: 1.16E-18 2x: 1.82E+06 2u: 2.36E-03 ir: 3.25E-19 iu: 8.42E-04 rsn: rtol
 Step     38 Time=  2.28035E+01 Dt=  1.00000E+00 [d] snes_conv_reason:    3
  newton =   4 [     168] linear =     4 [       168] cuts =  0 [   3]
  --> max chng: dpmx=   5.7858E+03

== RICHARDS FLOW ===============================================================
  0 2r: 1.51E-05 2x: 0.00E+00 2u: 0.00E+00 ir: 1.88E-06 iu: 0.00E+00 rsn:   0
  1 2r: 1.15E-06 2x: 1.84E+06 2u: 4.79E+04 ir: 2.28E-07 iu: 6.13E+03 rsn:   0
  2 2r: 9.77E-09 2x: 1.84E+06 2u: 2.76E+03 ir: 2.64E-09 iu: 4.86E+02 rsn:   0
  3 2r: 8.89E-13 2x: 1.84E+06 2u: 2.19E+01 ir: 3.24E-13 iu: 4.68E+00 rsn:   0
  4 2r: 1.25E-18 2x: 1.84E+06 2u: 1.74E-03 ir: 4.20E-19 iu: 5.74E-04 rsn: rtol
 Step     39 Time=  2.38035E+01 Dt=  1.00000E+00 [d] snes_conv_reason:    3
  newton =   4 [     172] linear =     4 [       172] cuts =  0 [   3]
  --> max chng: dpmx=   5.6350E+03

== RICHARDS FLOW ===============================================================
  0 2r: 1.49E-05 2x: 0.00E+00 2u: 0.00E+00 ir: 1.82E-06 iu: 0.00E+00 rsn:   0
  1 2r: 1.10E-06 2x: 1.86E+06 2u: 4.67E+04 ir: 2.05E-07 iu: 5.72E+03 rsn:   0
  2 2r: 8.97E-09 2x: 1.86E+06 2u: 2.54E+03 ir: 2.12E-09 iu: 4.81E+02 rsn:   0
  3 2r: 7.17E-13 2x: 1.86E+06 2u: 1.99E+01 ir: 1.99E-13 iu: 5.02E+00 rsn:   0
  4 2r: 1.14E-18 2x: 1.86E+06 2u: 1.59E-03 ir: 3.39E-19 iu: 5.43E-04 rsn: rtol
 Step     40 Time=  2.48035E+01 Dt=  1.00000E+00 [d] snes_conv_reason:    3
  newton =   4 [     176] linear =     4 [       176] cuts =  0 [   3]
  --> max chng: dpmx=   5.2777E+03

== RICHARDS FLOW ===============================================================
  0 2r: 1.46E-05 2x: 0.00E+00 2u: 0.00E+00 ir: 1.75E-06 iu: 0.00E+00 rsn:   0
  1 2r: 1.03E-06 2x: 1.88E+06 2u: 4.59E+04 ir: 1.89E-07 iu: 5.25E+03 rsn:   0
  2 2r: 8.14E-09 2x: 1.88E+06 2u: 2.35E+03 ir: 2.11E-09 iu: 4.25E+02 rsn:   0
  3 2r: 6.64E-13 2x: 1.88E+06 2u: 1.67E+01 ir: 2.24E-13 iu: 4.47E+00 rsn:   0
  4 2r: 1.13E-18 2x: 1.88E+06 2u: 1.38E-03 ir: 3.12E-19 iu: 4.92E-04 rsn: rtol
 Step     41 Time=  2.58035E+01 Dt=  1.00000E+00 [d] snes_conv_reason:    3
  newton =   4 [     180] linear =     4 [       180] cuts =  0 [   3]
  --> max chng: dpmx=   4.9718E+03

== RICHARDS FLOW ===============================================================
  0 2r: 1.44E-05 2x: 0.00E+00 2u: 0.00E+00 ir: 1.67E-06 iu: 0.00E+00 rsn:   0
  1 2r: 9.68E-07 2x: 1.90E+06 2u: 4.53E+04 ir: 1.93E-07 iu: 5.36E+03 rsn:   0
  2 2r: 7.00E-09 2x: 1.90E+06 2u: 2.23E+03 ir: 2.00E-09 iu: 3.71E+02 rsn:   0
  3 2r: 5.21E-13 2x: 1.90E+06 2u: 1.34E+01 ir: 1.79E-13 iu: 3.40E+00 rsn:   0
  4 2r: 1.34E-18 2x: 1.90E+06 2u: 9.35E-04 ir: 4.20E-19 iu: 3.03E-04 rsn: rtol
 Step     42 Time=  2.68035E+01 Dt=  1.00000E+00 [d] snes_conv_reason:    3
  newton =   4 [     184] linear =     4 [       184] cuts =  0 [   3]
  --> max chng: dpmx=   5.0103E+03

== RICHARDS FLOW ===============================================================
  0 2r: 1.41E-05 2x: 0.00E+00 2u: 0.00E+00 ir: 1.69E-06 iu: 0.00E+00 rsn:   0
  1 2r: 9.07E-07 2x: 1.92E+06 2u: 4.47E+04 ir: 1.87E-07 iu: 5.41E+03 rsn:   0
  2 2r: 5.79E-09 2x: 1.92E+06 2u: 2.16E+03 ir: 1.74E-09 iu: 3.67E+02 rsn:   0
  3 2r: 3.29E-13 2x: 1.92E+06 2u: 1.16E+01 ir: 1.26E-13 iu: 2.51E+00 rsn:   0
  4 2r: 1.04E-18 2x: 1.92E+06 2u: 5.53E-04 ir: 2.57E-19 iu: 1.74E-04 rsn: rtol
 Step     43 Time=  2.78035E+01 Dt=  1.00000E+00 [d] snes_conv_reason:    3
  newton =   4 [     188] linear =     4 [       188] cuts =  0 [   3]
  --> max chng: dpmx=   5.0693E+03

== RICHARDS FLOW ===============================================================
  0 2r: 1.39E-05 2x: 0.00E+00 2u: 0.00E+00 ir: 1.68E-06 iu: 0.00E+00 rsn:   0
  1 2r: 8.61E-07 2x: 1.94E+06 2u: 4.40E+04 ir: 1.71E-07 iu: 5.25E+03 rsn:   0
  2 2r: 5.00E-09 2x: 1.94E+06 2u: 2.11E+03 ir: 1.35E-09 iu: 3.76E+02 rsn:   0
  3 2r: 2.16E-13 2x: 1.94E+06 2u: 1.10E+01 ir: 7.07E-14 iu: 2.63E+00 rsn:   0
  4 2r: 1.10E-18 2x: 1.94E+06 2u: 4.50E-04 ir: 3.39E-19 iu: 1.47E-04 rsn: rtol
 Step     44 Time=  2.88035E+01 Dt=  1.00000E+00 [d] snes_conv_reason:    3
  newton =   4 [     192] linear =     4 [       192] cuts =  0 [   3]
  --> max chng: dpmx=   4.8745E+03

== RICHARDS FLOW ===============================================================
  0 2r: 1.37E-05 2x: 0.00E+00 2u: 0.00E+00 ir: 1.64E-06 iu: 0.00E+00 rsn:   0
  1 2r: 8.28E-07 2x: 1.96E+06 2u: 4.33E+04 ir: 1.56E-07 iu: 4.93E+03 rsn:   0
  2 2r: 4.66E-09 2x: 1.96E+06 2u: 2.04E+03 ir: 1.27E-09 iu: 3.62E+02 rsn:   0
  3 2r: 2.03E-13 2x: 1.96E+06 2u: 1.06E+01 ir: 7.28E-14 iu: 2.77E+00 rsn:   0
  4 2r: 1.27E-18 2x: 1.96E+06 2u: 4.51E-04 ir: 3.66E-19 iu: 1.60E-04 rsn: rtol
 Step     45 Time=  2.98035E+01 Dt=  1.00000E+00 [d] snes_conv_reason:    3
  newton =   4 [     196] linear =     4 [       196] cuts =  0 [   3]
  --> max chng: dpmx=   4.5739E+03

== RICHARDS FLOW ===============================================================
  0 2r: 1.36E-05 2x: 0.00E+00 2u: 0.00E+00 ir: 1.62E-06 iu: 0.00E+00 rsn:   0
  1 2r: 8.00E-07 2x: 1.98E+06 2u: 4.25E+04 ir: 1.59E-07 iu: 4.73E+03 rsn:   0
  2 2r: 4.41E-09 2x: 1.98E+06 2u: 1.95E+03 ir: 1.21E-09 iu: 3.25E+02 rsn:   0
  3 2r: 1.91E-13 2x: 1.98E+06 2u: 9.75E+00 ir: 6.60E-14 iu: 2.42E+00 rsn:   0
  4 2r: 1.44E-18 2x: 1.98E+06 2u: 3.90E-04 ir: 5.01E-19 iu: 1.37E-04 rsn: rtol
 Step     46 Time=  3.08035E+01 Dt=  1.00000E+00 [d] snes_conv_reason:    3
  newton =   4 [     200] linear =     4 [       200] cuts =  0 [   3]
  --> max chng: dpmx=   4.4347E+03

== RICHARDS FLOW ===============================================================
  0 2r: 1.34E-05 2x: 0.00E+00 2u: 0.00E+00 ir: 1.67E-06 iu: 0.00E+00 rsn:   0
  1 2r: 7.71E-07 2x: 1.99E+06 2u: 4.19E+04 ir: 1.58E-07 iu: 4.73E+03 rsn:   0
  2 2r: 4.06E-09 2x: 1.99E+06 2u: 1.84E+03 ir: 1.10E-09 iu: 2.92E+02 rsn:   0
  3 2r: 1.53E-13 2x: 1.99E+06 2u: 8.68E+00 ir: 5.36E-14 iu: 1.92E+00 rsn:   0
  4 2r: 1.25E-18 2x: 1.99E+06 2u: 2.91E-04 ir: 3.79E-19 iu: 9.19E-05 rsn: rtol
 Step     47 Time=  3.18035E+01 Dt=  1.00000E+00 [d] snes_conv_reason:    3
  newton =   4 [     204] linear =     4 [       204] cuts =  0 [   3]
  --> max chng: dpmx=   4.4738E+03

== RICHARDS FLOW ===============================================================
  0 2r: 1.32E-05 2x: 0.00E+00 2u: 0.00E+00 ir: 1.69E-06 iu: 0.00E+00 rsn:   0
  1 2r: 7.41E-07 2x: 2.01E+06 2u: 4.14E+04 ir: 1.51E-07 iu: 4.69E+03 rsn:   0
  2 2r: 3.64E-09 2x: 2.01E+06 2u: 1.76E+03 ir: 9.33E-10 iu: 2.89E+02 rsn:   0
  3 2r: 1.11E-13 2x: 2.01E+06 2u: 7.65E+00 ir: 3.60E-14 iu: 1.54E+00 rsn: rtol
 Step     48 Time=  3.28035E+01 Dt=  1.00000E+00 [d] snes_conv_reason:    3
  newton =   3 [     207] linear =     3 [       207] cuts =  0 [   3]
  --> max chng: dpmx=   4.4179E+03

== RICHARDS FLOW ===============================================================
  0 2r: 1.31E-05 2x: 0.00E+00 2u: 0.00E+00 ir: 1.68E-06 iu: 0.00E+00 rsn:   0
  1 2r: 7.12E-07 2x: 2.03E+06 2u: 4.09E+04 ir: 1.39E-07 iu: 4.54E+03 rsn:   0
  2 2r: 3.29E-09 2x: 2.03E+06 2u: 1.70E+03 ir: 7.36E-10 iu: 2.89E+02 rsn:   0
  3 2r: 8.71E-14 2x: 2.03E+06 2u: 6.86E+00 ir: 2.22E-14 iu: 1.61E+00 rsn: rtol
 Step     49 Time=  3.38035E+01 Dt=  1.00000E+00 [d] snes_conv_reason:    3
  newton =   3 [     210] linear =     3 [       210] cuts =  0 [   3]
  --> max chng: dpmx=   4.2509E+03

== RICHARDS FLOW ===============================================================
  0 2r: 1.29E-05 2x: 0.00E+00 2u: 0.00E+00 ir: 1.66E-06 iu: 0.00E+00 rsn:   0
  1 2r: 6.85E-07 2x: 2.05E+06 2u: 4.04E+04 ir: 1.24E-07 iu: 4.54E+03 rsn:   0
  2 2r: 3.02E-09 2x: 2.05E+06 2u: 1.66E+03 ir: 7.48E-10 iu: 2.79E+02 rsn:   0
  3 2r: 8.05E-14 2x: 2.05E+06 2u: 6.34E+00 ir: 2.64E-14 iu: 1.58E+00 rsn: rtol
 Step     50 Time=  3.48035E+01 Dt=  1.00000E+00 [d] snes_conv_reason:    3
  newton =   3 [     213] linear =     3 [       213] cuts =  0 [   3]
  --> max chng: dpmx=   4.3174E+03

== RICHARDS FLOW ===============================================================
  0 2r: 1.28E-05 2x: 0.00E+00 2u: 0.00E+00 ir: 1.62E-06 iu: 0.00E+00 rsn:   0
  1 2r: 6.62E-07 2x: 2.07E+06 2u: 3.99E+04 ir: 1.23E-07 iu: 4.61E+03 rsn:   0
  2 2r: 2.81E-09 2x: 2.07E+06 2u: 1.62E+03 ir: 7.67E-10 iu: 2.61E+02 rsn:   0
  3 2r: 7.45E-14 2x: 2.07E+06 2u: 6.05E+00 ir: 2.56E-14 iu: 1.47E+00 rsn: rtol
 Step     51 Time=  3.58035E+01 Dt=  1.00000E+00 [d] snes_conv_reason:    3
  newton =   3 [     216] linear =     3 [       216] cuts =  0 [   3]
  --> max chng: dpmx=   4.3583E+03

== RICHARDS FLOW ===============================================================
  0 2r: 1.27E-05 2x: 0.00E+00 2u: 0.00E+00 ir: 1.57E-06 iu: 0.00E+00 rsn:   0
  1 2r: 6.40E-07 2x: 2.08E+06 2u: 3.93E+04 ir: 1.23E-07 iu: 4.57E+03 rsn:   0
  2 2r: 2.61E-09 2x: 2.08E+06 2u: 1.57E+03 ir: 7.23E-10 iu: 2.79E+02 rsn:   0
  3 2r: 6.34E-14 2x: 2.08E+06 2u: 5.83E+00 ir: 2.28E-14 iu: 1.41E+00 rsn: rtol
 Step     52 Time=  3.68035E+01 Dt=  1.00000E+00 [d] snes_conv_reason:    3
  newton =   3 [     219] linear =     3 [       219] cuts =  0 [   3]
  --> max chng: dpmx=   4.3075E+03

== RICHARDS FLOW ===============================================================
  0 2r: 1.25E-05 2x: 0.00E+00 2u: 0.00E+00 ir: 1.52E-06 iu: 0.00E+00 rsn:   0
  1 2r: 6.18E-07 2x: 2.10E+06 2u: 3.89E+04 ir: 1.19E-07 iu: 4.42E+03 rsn:   0
  2 2r: 2.41E-09 2x: 2.10E+06 2u: 1.52E+03 ir: 6.39E-10 iu: 2.80E+02 rsn:   0
  3 2r: 5.27E-14 2x: 2.10E+06 2u: 5.54E+00 ir: 1.68E-14 iu: 1.54E+00 rsn: rtol
 Step     53 Time=  3.78035E+01 Dt=  1.00000E+00 [d] snes_conv_reason:    3
  newton =   3 [     222] linear =     3 [       222] cuts =  0 [   3]
  --> max chng: dpmx=   4.1459E+03

== RICHARDS FLOW ===============================================================
  0 2r: 1.24E-05 2x: 0.00E+00 2u: 0.00E+00 ir: 1.48E-06 iu: 0.00E+00 rsn:   0
  1 2r: 5.97E-07 2x: 2.12E+06 2u: 3.84E+04 ir: 1.12E-07 iu: 4.14E+03 rsn:   0
  2 2r: 2.22E-09 2x: 2.12E+06 2u: 1.47E+03 ir: 5.22E-10 iu: 2.69E+02 rsn:   0
  3 2r: 4.67E-14 2x: 2.12E+06 2u: 5.14E+00 ir: 1.73E-14 iu: 1.54E+00 rsn: rtol
 Step     54 Time=  3.88035E+01 Dt=  1.00000E+00 [d] snes_conv_reason:    3
  newton =   3 [     225] linear =     3 [       225] cuts =  0 [   3]
  --> max chng: dpmx=   3.8818E+03

== RICHARDS FLOW ===============================================================
  0 2r: 1.23E-05 2x: 0.00E+00 2u: 0.00E+00 ir: 1.46E-06 iu: 0.00E+00 rsn:   0
  1 2r: 5.77E-07 2x: 2.13E+06 2u: 3.80E+04 ir: 1.03E-07 iu: 4.12E+03 rsn:   0
  2 2r: 2.05E-09 2x: 2.13E+06 2u: 1.43E+03 ir: 5.07E-10 iu: 2.47E+02 rsn:   0
  3 2r: 4.25E-14 2x: 2.13E+06 2u: 4.70E+00 ir: 1.75E-14 iu: 1.41E+00 rsn: rtol
 Step     55 Time=  3.98035E+01 Dt=  1.00000E+00 [d] snes_conv_reason:    3
  newton =   3 [     228] linear =     3 [       228] cuts =  0 [   3]
  --> max chng: dpmx=   3.9459E+03

== RICHARDS FLOW ===============================================================
  0 2r: 1.22E-05 2x: 0.00E+00 2u: 0.00E+00 ir: 1.43E-06 iu: 0.00E+00 rsn:   0
  1 2r: 5.58E-07 2x: 2.15E+06 2u: 3.77E+04 ir: 9.56E-08 iu: 4.25E+03 rsn:   0
  2 2r: 1.91E-09 2x: 2.15E+06 2u: 1.40E+03 ir: 4.99E-10 iu: 2.17E+02 rsn:   0
  3 2r: 3.65E-14 2x: 2.15E+06 2u: 4.42E+00 ir: 1.56E-14 iu: 1.18E+00 rsn: rtol
 Step     56 Time=  4.08035E+01 Dt=  1.00000E+00 [d] snes_conv_reason:    3
  newton =   3 [     231] linear =     3 [       231] cuts =  0 [   3]
  --> max chng: dpmx=   4.0323E+03

== RICHARDS FLOW ===============================================================
  0 2r: 1.21E-05 2x: 0.00E+00 2u: 0.00E+00 ir: 1.39E-06 iu: 0.00E+00 rsn:   0
  1 2r: 5.41E-07 2x: 2.17E+06 2u: 3.74E+04 ir: 9.98E-08 iu: 4.27E+03 rsn:   0
  2 2r: 1.80E-09 2x: 2.17E+06 2u: 1.37E+03 ir: 4.83E-10 iu: 2.36E+02 rsn:   0
  3 2r: 3.01E-14 2x: 2.17E+06 2u: 4.35E+00 ir: 1.17E-14 iu: 9.40E-01 rsn: rtol
 Step     57 Time=  4.18035E+01 Dt=  1.00000E+00 [d] snes_conv_reason:    3
  newton =   3 [     234] linear =     3 [       234] cuts =  0 [   3]
  --> max chng: dpmx=   4.0508E+03

== RICHARDS FLOW ===============================================================
  0 2r: 1.19E-05 2x: 0.00E+00 2u: 0.00E+00 ir: 1.36E-06 iu: 0.00E+00 rsn:   0
  1 2r: 5.26E-07 2x: 2.18E+06 2u: 3.70E+04 ir: 9.90E-08 iu: 4.19E+03 rsn:   0
  2 2r: 1.72E-09 2x: 2.18E+06 2u: 1.34E+03 ir: 4.51E-10 iu: 2.41E+02 rsn:   0
  3 2r: 2.68E-14 2x: 2.18E+06 2u: 4.33E+00 ir: 8.18E-15 iu: 1.10E+00 rsn: rtol
 Step     58 Time=  4.28035E+01 Dt=  1.00000E+00 [d] snes_conv_reason:    3
  newton =   3 [     237] linear =     3 [       237] cuts =  0 [   3]
  --> max chng: dpmx=   3.9528E+03

== RICHARDS FLOW ===============================================================
  0 2r: 1.18E-05 2x: 0.00E+00 2u: 0.00E+00 ir: 1.35E-06 iu: 0.00E+00 rsn:   0
  1 2r: 5.11E-07 2x: 2.20E+06 2u: 3.67E+04 ir: 9.44E-08 iu: 4.02E+03 rsn:   0
  2 2r: 1.65E-09 2x: 2.20E+06 2u: 1.31E+03 ir: 3.89E-10 iu: 2.40E+02 rsn:   0
  3 2r: 2.72E-14 2x: 2.20E+06 2u: 4.19E+00 ir: 8.36E-15 iu: 1.14E+00 rsn: rtol
 Step     59 Time=  4.38035E+01 Dt=  1.00000E+00 [d] snes_conv_reason:    3
  newton =   3 [     240] linear =     3 [       240] cuts =  0 [   3]
  --> max chng: dpmx=   3.7844E+03

== RICHARDS FLOW ===============================================================
  0 2r: 1.17E-05 2x: 0.00E+00 2u: 0.00E+00 ir: 1.33E-06 iu: 0.00E+00 rsn:   0
  1 2r: 4.96E-07 2x: 2.22E+06 2u: 3.64E+04 ir: 8.74E-08 iu: 3.88E+03 rsn:   0
  2 2r: 1.57E-09 2x: 2.22E+06 2u: 1.28E+03 ir: 3.71E-10 iu: 2.26E+02 rsn:   0
  3 2r: 2.72E-14 2x: 2.22E+06 2u: 3.90E+00 ir: 9.40E-15 iu: 1.11E+00 rsn: rtol
 Step     60 Time=  4.48035E+01 Dt=  1.00000E+00 [d] snes_conv_reason:    3
  newton =   3 [     243] linear =     3 [       243] cuts =  0 [   3]
  --> max chng: dpmx=   3.7100E+03

== RICHARDS FLOW ===============================================================
  0 2r: 1.16E-05 2x: 0.00E+00 2u: 0.00E+00 ir: 1.31E-06 iu: 0.00E+00 rsn:   0
  1 2r: 4.82E-07 2x: 2.23E+06 2u: 3.62E+04 ir: 7.94E-08 iu: 3.95E+03 rsn:   0
  2 2r: 1.46E-09 2x: 2.23E+06 2u: 1.25E+03 ir: 3.69E-10 iu: 2.07E+02 rsn:   0
  3 2r: 2.42E-14 2x: 2.23E+06 2u: 3.58E+00 ir: 8.71E-15 iu: 9.72E-01 rsn: rtol
 Step     61 Time=  4.58035E+01 Dt=  1.00000E+00 [d] snes_conv_reason:    3
  newton =   3 [     246] linear =     3 [       246] cuts =  0 [   3]
  --> max chng: dpmx=   3.7668E+03

== RICHARDS FLOW ===============================================================
  0 2r: 1.15E-05 2x: 0.00E+00 2u: 0.00E+00 ir: 1.28E-06 iu: 0.00E+00 rsn:   0
  1 2r: 4.68E-07 2x: 2.25E+06 2u: 3.59E+04 ir: 7.32E-08 iu: 4.00E+03 rsn:   0
  2 2r: 1.34E-09 2x: 2.25E+06 2u: 1.23E+03 ir: 3.47E-10 iu: 2.04E+02 rsn:   0
  3 2r: 1.92E-14 2x: 2.25E+06 2u: 3.36E+00 ir: 7.32E-15 iu: 8.13E-01 rsn: rtol
 Step     62 Time=  4.68035E+01 Dt=  1.00000E+00 [d] snes_conv_reason:    3
  newton =   3 [     249] linear =     3 [       249] cuts =  0 [   3]
  --> max chng: dpmx=   3.8086E+03

== RICHARDS FLOW ===============================================================
  0 2r: 1.14E-05 2x: 0.00E+00 2u: 0.00E+00 ir: 1.25E-06 iu: 0.00E+00 rsn:   0
  1 2r: 4.54E-07 2x: 2.27E+06 2u: 3.56E+04 ir: 6.80E-08 iu: 3.98E+03 rsn:   0
  2 2r: 1.24E-09 2x: 2.27E+06 2u: 1.21E+03 ir: 3.09E-10 iu: 2.09E+02 rsn:   0
  3 2r: 1.51E-14 2x: 2.27E+06 2u: 3.26E+00 ir: 5.50E-15 iu: 7.97E-01 rsn: rtol
 Step     63 Time=  4.78035E+01 Dt=  1.00000E+00 [d] snes_conv_reason:    3
  newton =   3 [     252] linear =     3 [       252] cuts =  0 [   3]
  --> max chng: dpmx=   3.7690E+03

== RICHARDS FLOW ===============================================================
  0 2r: 1.13E-05 2x: 0.00E+00 2u: 0.00E+00 ir: 1.21E-06 iu: 0.00E+00 rsn:   0
  1 2r: 4.42E-07 2x: 2.28E+06 2u: 3.54E+04 ir: 6.38E-08 iu: 3.82E+03 rsn:   0
  2 2r: 1.18E-09 2x: 2.28E+06 2u: 1.19E+03 ir: 2.57E-10 iu: 2.14E+02 rsn:   0
  3 2r: 1.38E-14 2x: 2.28E+06 2u: 3.21E+00 ir: 4.22E-15 iu: 8.56E-01 rsn: rtol
 Step     64 Time=  4.88035E+01 Dt=  1.00000E+00 [d] snes_conv_reason:    3
  newton =   3 [     255] linear =     3 [       255] cuts =  0 [   3]
  --> max chng: dpmx=   3.6075E+03

== RICHARDS FLOW ===============================================================
  0 2r: 1.12E-05 2x: 0.00E+00 2u: 0.00E+00 ir: 1.18E-06 iu: 0.00E+00 rsn:   0
  1 2r: 4.31E-07 2x: 2.30E+06 2u: 3.51E+04 ir: 6.65E-08 iu: 3.72E+03 rsn:   0
  2 2r: 1.14E-09 2x: 2.30E+06 2u: 1.17E+03 ir: 2.63E-10 iu: 2.05E+02 rsn:   0
  3 2r: 1.40E-14 2x: 2.30E+06 2u: 3.13E+00 ir: 4.75E-15 iu: 8.77E-01 rsn: rtol
 Step     65 Time=  4.98035E+01 Dt=  1.00000E+00 [d] snes_conv_reason:    3
  newton =   3 [     258] linear =     3 [       258] cuts =  0 [   3]
  --> max chng: dpmx=   3.5463E+03

== RICHARDS FLOW ===============================================================
  0 2r: 1.11E-05 2x: 0.00E+00 2u: 0.00E+00 ir: 1.14E-06 iu: 0.00E+00 rsn:   0
  1 2r: 7.18E-08 2x: 2.30E+06 2u: 6.57E+03 ir: 1.09E-08 iu: 6.78E+02 rsn:   0
  2 2r: 5.29E-12 2x: 2.30E+06 2u: 4.26E+01 ir: 1.26E-12 iu: 6.87E+00 rsn:   0
  3 2r: 4.48E-18 2x: 2.30E+06 2u: 3.36E-03 ir: 4.34E-19 iu: 8.62E-04 rsn: rtol
 Step     66 Time=  5.00000E+01 Dt=  1.96512E-01 [d] snes_conv_reason:    3
  newton =   3 [     261] linear =     3 [       261] cuts =  0 [   3]
  --> max chng: dpmx=   6.7225E+02

 Wall Clock Time:  8.8566E+00 [sec]   1.4761E-01 [min]   2.4602E-03 [hr]
