
=================
  PFLOTRAN v3.0
=================

 Extent of Gridded Domain
  X: 0.0000000000000000 - 8.0000000000000000
  Y: 0.0000000000000000 - 1.0000000000000000
  Z: 0.0000000000000000 - 6.5000000000000000


=+=+=+=+=+=+=+=+=+=+=+=+=+=+=+=+=+=+=+=+=+=+=+=+=+=+=+=+=+=+=+=+=+=+=+=+=+=+=+=+

  Initial Condition

--------------------------------------------------------------------------------
          Flow Condition:   initial_pressure
                  Region:   all
--------------------------------------------------------------------------------

  Flow Condition: initial_pressure
    Synchronize time with update: no
    Time units: yr
    Length units: m
      Datum:

    Sub Condition: pressure
      Type: dirichlet
      Gradient:
      Data:
        Dataset: Unnamed Ascii Dataset
          Type: dataset_ascii_type
          Transient: no
          Array Rank:  1

--------------------------------------------------------------------------------

=+=+=+=+=+=+=+=+=+=+=+=+=+=+=+=+=+=+=+=+=+=+=+=+=+=+=+=+=+=+=+=+=+=+=+=+=+=+=+=+

  Boundary Condition

--------------------------------------------------------------------------------
          Flow Condition:   influx
                  Region:   top_inf
--------------------------------------------------------------------------------

  Flow Condition: influx
    Synchronize time with update: no
    Time units: yr
    Length units: m
      Datum:

    Sub Condition: pressure
      Type: neumann
      Gradient:
      Data:
        Dataset: Unnamed Ascii Dataset
          Type: dataset_ascii_type
          Transient: no
          Array Rank:  1

--------------------------------------------------------------------------------

 Requested processors and decomposition =     1, npx,y,z=   -1  -1  -1
 Actual decomposition: npx,y,z=    1   1   1


FLOW Time Stepper
                 acceleration: on
       acceleration threshold: 5
       number of ramp entries: 5
                ramp entry #1: 2.0000
                ramp entry #2: 2.0000
                ramp entry #3: 2.0000
                ramp entry #4: 2.0000
                ramp entry #5: 2.0000
                ramp entry #6: 1.8000
                ramp entry #7: 1.6000
                ramp entry #8: 1.4000
                ramp entry #9: 1.2000
               ramp entry #10: 1.0000
               ramp entry #11: 1.0000
               ramp entry #12: 1.0000
               ramp entry #13: 1.0000
      maximum number of steps: 999999
constant time steps threshold: 5
       maximum number of cuts: 16
             reduction factor: 5.000000E-01
        maximum growth factor: 2.000000E+00

FLOW Newton Solver
                         atol: 1.000000E-50
                         rtol: 1.000000E-08
                         stol: 1.000000E-08
                         dtol: 1.000000E+04
                      maxnorm: 1.000000E+20
                    inftolres: -9.990000E+02
                    inftolupd: -9.990000E+02
                 inftolrelupd: -9.990000E+02
                 inftolsclres: -9.990000E+02
                     max iter: 50
                     min iter: 1
                         maxf: 10000
                  matrix type: baij
         precond. matrix type: baij
               inexact newton: off
            print convergence: on
   print detailed convergence: off
          check infinity norm: on

FLOW Linear Solver
                       solver: preonly
               preconditioner: lu
                         atol: 1.000000E-50
                         rtol: 1.000000E-05
                         dtol: 1.000000E+04
            maximum iteration: 10000

== RICHARDS FLOW ===============================================================
  0 2r: 6.14E-06 2x: 0.00E+00 2u: 0.00E+00 ir: 1.28E-06 iu: 0.00E+00 rsn:   0
  1 2r: 1.02E+00 2x: 1.17E+06 2u: 1.17E+06 ir: 2.88E-01 iu: 2.45E+05 rsn:  -9
  0 2r: 6.14E-06 2x: 0.00E+00 2u: 0.00E+00 ir: 1.28E-06 iu: 0.00E+00 rsn:   0
  1 2r: 5.16E-01 2x: 5.89E+05 2u: 5.89E+05 ir: 1.45E-01 iu: 1.23E+05 rsn:  -9
  0 2r: 6.14E-06 2x: 0.00E+00 2u: 0.00E+00 ir: 1.28E-06 iu: 0.00E+00 rsn:   0
  1 2r: 9.46E-06 2x: 2.95E+05 2u: 2.95E+05 ir: 2.04E-06 iu: 6.14E+04 rsn:   0
  2 2r: 2.67E-06 2x: 2.27E+05 2u: 6.94E+04 ir: 5.92E-07 iu: 1.42E+04 rsn:   0
  3 2r: 3.33E-07 2x: 1.91E+05 2u: 3.92E+04 ir: 8.01E-08 iu: 7.81E+03 rsn:   0
  4 2r: 6.65E-09 2x: 1.85E+05 2u: 5.97E+03 ir: 1.86E-09 iu: 1.41E+03 rsn:   0
  5 2r: 2.80E-12 2x: 1.85E+05 2u: 1.24E+02 ir: 1.05E-12 iu: 3.45E+01 rsn:   0
  6 2r: 5.83E-19 2x: 1.85E+05 2u: 5.24E-02 ir: 3.35E-19 iu: 1.95E-02 rsn: rtol
 Step      1 Time=  2.50000E-02 Dt=  2.50000E-02 [d] snes_conv_reason:    3
  newton =   8 [       8] linear =     8 [         8] cuts =  2 [   2]
  --> max chng: dpmx=   3.8477E+04

== RICHARDS FLOW ===============================================================
  0 2r: 6.11E-06 2x: 0.00E+00 2u: 0.00E+00 ir: 1.27E-06 iu: 0.00E+00 rsn:   0
  1 2r: 3.92E-06 2x: 2.99E+05 2u: 1.14E+05 ir: 8.41E-07 iu: 2.38E+04 rsn:   0
  2 2r: 5.48E-07 2x: 2.72E+05 2u: 2.67E+04 ir: 1.23E-07 iu: 5.58E+03 rsn:   0
  3 2r: 1.33E-08 2x: 2.67E+05 2u: 5.87E+03 ir: 3.41E-09 iu: 1.09E+03 rsn:   0
  4 2r: 8.47E-12 2x: 2.67E+05 2u: 1.34E+02 ir: 2.75E-12 iu: 3.21E+01 rsn:   0
  5 2r: 3.55E-18 2x: 2.67E+05 2u: 8.61E-02 ir: 1.76E-18 iu: 2.59E-02 rsn: rtol
 Step      2 Time=  5.00000E-02 Dt=  2.50000E-02 [d] snes_conv_reason:    3
  newton =   5 [      13] linear =     5 [        13] cuts =  0 [   2]
  --> max chng: dpmx=   1.7195E+04

== RICHARDS FLOW ===============================================================
  0 2r: 5.96E-06 2x: 0.00E+00 2u: 0.00E+00 ir: 1.24E-06 iu: 0.00E+00 rsn:   0
  1 2r: 2.42E-06 2x: 3.26E+05 2u: 6.10E+04 ir: 5.00E-07 iu: 1.21E+04 rsn:   0
  2 2r: 2.00E-07 2x: 3.15E+05 2u: 1.20E+04 ir: 4.14E-08 iu: 2.42E+03 rsn:   0
  3 2r: 1.50E-09 2x: 3.14E+05 2u: 1.77E+03 ir: 3.41E-10 iu: 2.91E+02 rsn:   0
  4 2r: 8.77E-14 2x: 3.14E+05 2u: 1.08E+01 ir: 2.33E-14 iu: 1.90E+00 rsn:   0
  5 2r: 8.75E-20 2x: 3.14E+05 2u: 6.77E-04 ir: 2.03E-20 iu: 1.30E-04 rsn: rtol
 Step      3 Time=  7.50000E-02 Dt=  2.50000E-02 [d] snes_conv_reason:    3
  newton =   5 [      18] linear =     5 [        18] cuts =  0 [   2]
  --> max chng: dpmx=   9.4057E+03

== RICHARDS FLOW ===============================================================
  0 2r: 5.60E-06 2x: 0.00E+00 2u: 0.00E+00 ir: 1.17E-06 iu: 0.00E+00 rsn:   0
  1 2r: 1.55E-06 2x: 3.53E+05 2u: 5.34E+04 ir: 3.22E-07 iu: 8.68E+03 rsn:   0
  2 2r: 7.74E-08 2x: 3.48E+05 2u: 5.42E+03 ir: 1.54E-08 iu: 1.14E+03 rsn:   0
  3 2r: 1.94E-10 2x: 3.48E+05 2u: 5.53E+02 ir: 3.97E-11 iu: 1.01E+02 rsn:   0
  4 2r: 1.27E-15 2x: 3.48E+05 2u: 1.18E+00 ir: 2.65E-16 iu: 2.00E-01 rsn: rtol
 Step      4 Time=  1.00000E-01 Dt=  2.50000E-02 [d] snes_conv_reason:    3
  newton =   4 [      22] linear =     4 [        22] cuts =  0 [   2]
  --> max chng: dpmx=   8.7939E+03

== RICHARDS FLOW ===============================================================
  0 2r: 5.12E-06 2x: 0.00E+00 2u: 0.00E+00 ir: 1.05E-06 iu: 0.00E+00 rsn:   0
  1 2r: 9.32E-07 2x: 3.84E+05 2u: 6.09E+04 ir: 1.96E-07 iu: 1.19E+04 rsn:   0
  2 2r: 2.42E-08 2x: 3.80E+05 2u: 5.64E+03 ir: 5.03E-09 iu: 1.04E+03 rsn:   0
  3 2r: 1.85E-11 2x: 3.80E+05 2u: 6.97E+01 ir: 3.72E-12 iu: 1.43E+01 rsn:   0
  4 2r: 9.92E-18 2x: 3.80E+05 2u: 1.01E-01 ir: 2.13E-18 iu: 1.90E-02 rsn: rtol
 Step      5 Time=  1.25000E-01 Dt=  2.50000E-02 [d] snes_conv_reason:    3
  newton =   4 [      26] linear =     4 [        26] cuts =  0 [   2]
  --> max chng: dpmx=   1.0836E+04

== RICHARDS FLOW ===============================================================
  0 2r: 4.70E-06 2x: 0.00E+00 2u: 0.00E+00 ir: 9.20E-07 iu: 0.00E+00 rsn:   0
  1 2r: 6.43E-07 2x: 4.16E+05 2u: 6.04E+04 ir: 1.16E-07 iu: 1.22E+04 rsn:   0
  2 2r: 1.08E-08 2x: 4.12E+05 2u: 7.35E+03 ir: 1.87E-09 iu: 1.51E+03 rsn:   0
  3 2r: 5.36E-12 2x: 4.12E+05 2u: 1.69E+02 ir: 1.14E-12 iu: 3.55E+01 rsn:   0
  4 2r: 1.54E-18 2x: 4.12E+05 2u: 8.98E-02 ir: 3.39E-19 iu: 1.91E-02 rsn: rtol
 Step      6 Time=  1.50000E-01 Dt=  2.50000E-02 [d] snes_conv_reason:    3
  newton =   4 [      30] linear =     4 [        30] cuts =  0 [   2]
  --> max chng: dpmx=   1.0642E+04

== RICHARDS FLOW ===============================================================
  0 2r: 4.44E-06 2x: 0.00E+00 2u: 0.00E+00 ir: 8.07E-07 iu: 0.00E+00 rsn:   0
  1 2r: 1.93E-06 2x: 4.85E+05 2u: 1.12E+05 ir: 3.95E-07 iu: 2.27E+04 rsn:   0
  2 2r: 2.57E-07 2x: 4.69E+05 2u: 2.46E+04 ir: 5.33E-08 iu: 5.08E+03 rsn:   0
  3 2r: 4.20E-09 2x: 4.67E+05 2u: 5.05E+03 ir: 8.87E-10 iu: 7.72E+02 rsn:   0
  4 2r: 1.16E-12 2x: 4.67E+05 2u: 6.91E+01 ir: 2.46E-13 iu: 1.33E+01 rsn:   0
  5 2r: 9.73E-20 2x: 4.67E+05 2u: 2.03E-02 ir: 3.05E-20 iu: 3.67E-03 rsn: rtol
 Step      7 Time=  2.00000E-01 Dt=  5.00000E-02 [d] snes_conv_reason:    3
  newton =   5 [      35] linear =     5 [        35] cuts =  0 [   2]
  --> max chng: dpmx=   1.6865E+04

== RICHARDS FLOW ===============================================================
  0 2r: 4.21E-06 2x: 0.00E+00 2u: 0.00E+00 ir: 6.67E-07 iu: 0.00E+00 rsn:   0
  1 2r: 3.37E-07 2x: 4.83E+05 2u: 2.24E+04 ir: 6.64E-08 iu: 4.30E+03 rsn:   0
  2 2r: 2.80E-09 2x: 4.82E+05 2u: 1.74E+03 ir: 5.96E-10 iu: 3.57E+02 rsn:   0
  3 2r: 1.92E-13 2x: 4.82E+05 2u: 1.52E+01 ir: 4.10E-14 iu: 3.04E+00 rsn:   0
  4 2r: 1.69E-19 2x: 4.82E+05 2u: 1.02E-03 ir: 2.03E-20 iu: 2.08E-04 rsn: rtol
 Step      8 Time=  2.16500E-01 Dt=  1.65000E-02 [d] snes_conv_reason:    3
  newton =   4 [      39] linear =     4 [        39] cuts =  0 [   2]
  --> max chng: dpmx=   3.9432E+03

== RICHARDS FLOW ===============================================================
  0 2r: 4.15E-06 2x: 0.00E+00 2u: 0.00E+00 ir: 6.25E-07 iu: 0.00E+00 rsn:   0
  1 2r: 8.29E-07 2x: 5.11E+05 2u: 4.43E+04 ir: 1.71E-07 iu: 7.44E+03 rsn:   0
  2 2r: 3.00E-08 2x: 5.07E+05 2u: 5.49E+03 ir: 6.21E-09 iu: 1.09E+03 rsn:   0
  3 2r: 3.42E-11 2x: 5.07E+05 2u: 2.97E+02 ir: 7.20E-12 iu: 5.01E+01 rsn:   0
  4 2r: 4.60E-17 2x: 5.07E+05 2u: 2.98E-01 ir: 9.72E-18 iu: 4.54E-02 rsn: rtol
 Step      9 Time=  2.49500E-01 Dt=  3.30000E-02 [d] snes_conv_reason:    3
  newton =   4 [      43] linear =     4 [        43] cuts =  0 [   2]
  --> max chng: dpmx=   6.3071E+03

== RICHARDS FLOW ===============================================================
  0 2r: 4.00E-06 2x: 0.00E+00 2u: 0.00E+00 ir: 6.18E-07 iu: 0.00E+00 rsn:   0
  1 2r: 2.06E-06 2x: 5.66E+05 2u: 1.13E+05 ir: 4.31E-07 iu: 2.11E+04 rsn:   0
  2 2r: 2.36E-07 2x: 5.55E+05 2u: 1.60E+04 ir: 4.59E-08 iu: 2.57E+03 rsn:   0
  3 2r: 3.09E-09 2x: 5.55E+05 2u: 2.59E+03 ir: 5.94E-10 iu: 4.91E+02 rsn:   0
  4 2r: 5.43E-13 2x: 5.55E+05 2u: 4.05E+01 ir: 1.07E-13 iu: 8.15E+00 rsn:   0
  5 2r: 6.30E-20 2x: 5.55E+05 2u: 6.30E-03 ir: 2.03E-20 iu: 1.24E-03 rsn: rtol
 Step     10 Time=  3.15500E-01 Dt=  6.60000E-02 [d] snes_conv_reason:    3
  newton =   5 [      48] linear =     5 [        48] cuts =  0 [   2]
  --> max chng: dpmx=   1.9068E+04

== RICHARDS FLOW ===============================================================
  0 2r: 3.69E-06 2x: 0.00E+00 2u: 0.00E+00 ir: 5.74E-07 iu: 0.00E+00 rsn:   0
  1 2r: 2.56E-07 2x: 5.71E+05 2u: 3.08E+04 ir: 5.00E-08 iu: 6.04E+03 rsn:   0
  2 2r: 1.31E-09 2x: 5.70E+05 2u: 2.00E+03 ir: 2.62E-10 iu: 4.03E+02 rsn:   0
  3 2r: 3.07E-14 2x: 5.70E+05 2u: 1.03E+01 ir: 5.99E-15 iu: 2.13E+00 rsn: rtol
 Step     11 Time=  3.37280E-01 Dt=  2.17800E-02 [d] snes_conv_reason:    3
  newton =   3 [      51] linear =     3 [        51] cuts =  0 [   2]
  --> max chng: dpmx=   5.6344E+03

== RICHARDS FLOW ===============================================================
  0 2r: 3.61E-06 2x: 0.00E+00 2u: 0.00E+00 ir: 5.50E-07 iu: 0.00E+00 rsn:   0
  1 2r: 5.79E-07 2x: 6.05E+05 2u: 6.60E+04 ir: 9.16E-08 iu: 1.32E+04 rsn:   0
  2 2r: 1.74E-08 2x: 6.00E+05 2u: 9.54E+03 ir: 3.62E-09 iu: 1.98E+03 rsn:   0
  3 2r: 2.44E-11 2x: 6.00E+05 2u: 3.71E+02 ir: 5.32E-12 iu: 7.74E+01 rsn:   0
  4 2r: 4.21E-17 2x: 6.00E+05 2u: 4.96E-01 ir: 9.25E-18 iu: 1.06E-01 rsn: rtol
 Step     12 Time=  3.80840E-01 Dt=  4.35600E-02 [d] snes_conv_reason:    3
  newton =   4 [      55] linear =     4 [        55] cuts =  0 [   2]
  --> max chng: dpmx=   1.1142E+04

== RICHARDS FLOW ===============================================================
  0 2r: 3.50E-06 2x: 0.00E+00 2u: 0.00E+00 ir: 5.10E-07 iu: 0.00E+00 rsn:   0
  1 2r: 2.50E-06 2x: 6.68E+05 2u: 1.19E+05 ir: 5.14E-07 iu: 2.27E+04 rsn:   0
  2 2r: 5.40E-07 2x: 6.53E+05 2u: 2.62E+04 ir: 1.06E-07 iu: 5.29E+03 rsn:   0
  3 2r: 2.44E-08 2x: 6.51E+05 2u: 1.93E+04 ir: 5.18E-09 iu: 4.00E+03 rsn:   0
  4 2r: 6.09E-11 2x: 6.51E+05 2u: 5.04E+02 ir: 1.27E-11 iu: 7.94E+01 rsn:   0
  5 2r: 3.56E-16 2x: 6.51E+05 2u: 1.71E+00 ir: 7.62E-17 iu: 3.35E-01 rsn: rtol
 Step     13 Time=  4.67960E-01 Dt=  8.71200E-02 [d] snes_conv_reason:    3
  newton =   5 [      60] linear =     5 [        60] cuts =  0 [   2]
  --> max chng: dpmx=   1.6667E+04

== RICHARDS FLOW ===============================================================
  0 2r: 3.35E-06 2x: 0.00E+00 2u: 0.00E+00 ir: 4.49E-07 iu: 0.00E+00 rsn:   0
  1 2r: 2.96E-07 2x: 6.66E+05 2u: 2.86E+04 ir: 5.87E-08 iu: 4.63E+03 rsn:   0
  2 2r: 3.31E-09 2x: 6.65E+05 2u: 1.75E+03 ir: 7.03E-10 iu: 3.52E+02 rsn:   0
  3 2r: 3.91E-13 2x: 6.65E+05 2u: 2.47E+01 ir: 8.43E-14 iu: 3.90E+00 rsn:   0
  4 2r: 1.31E-19 2x: 6.65E+05 2u: 2.85E-03 ir: 2.71E-20 iu: 4.64E-04 rsn: rtol
 Step     14 Time=  4.96710E-01 Dt=  2.87496E-02 [d] snes_conv_reason:    3
  newton =   4 [      64] linear =     4 [        64] cuts =  0 [   2]
  --> max chng: dpmx=   4.2978E+03

== RICHARDS FLOW ===============================================================
  0 2r: 3.29E-06 2x: 0.00E+00 2u: 0.00E+00 ir: 4.43E-07 iu: 0.00E+00 rsn:   0
  1 2r: 7.04E-07 2x: 6.98E+05 2u: 7.16E+04 ir: 1.47E-07 iu: 1.35E+04 rsn:   0
  2 2r: 3.15E-08 2x: 6.94E+05 2u: 7.23E+03 ir: 6.49E-09 iu: 1.20E+03 rsn:   0
  3 2r: 5.62E-11 2x: 6.94E+05 2u: 2.81E+02 ir: 1.13E-11 iu: 4.48E+01 rsn:   0
  4 2r: 1.70E-16 2x: 6.94E+05 2u: 7.33E-01 ir: 3.55E-17 iu: 1.47E-01 rsn: rtol
 Step     15 Time=  5.54209E-01 Dt=  5.74992E-02 [d] snes_conv_reason:    3
  newton =   4 [      68] linear =     4 [        68] cuts =  0 [   2]
  --> max chng: dpmx=   1.2350E+04

== RICHARDS FLOW ===============================================================
  0 2r: 3.16E-06 2x: 0.00E+00 2u: 0.00E+00 ir: 4.35E-07 iu: 0.00E+00 rsn:   0
  1 2r: 1.83E-06 2x: 7.74E+05 2u: 1.71E+05 ir: 3.08E-07 iu: 3.46E+04 rsn:   0
  2 2r: 3.89E-07 2x: 7.55E+05 2u: 3.81E+04 ir: 8.08E-08 iu: 7.84E+03 rsn:   0
  3 2r: 2.26E-08 2x: 7.51E+05 2u: 1.51E+04 ir: 4.97E-09 iu: 2.51E+03 rsn:   0
  4 2r: 7.28E-11 2x: 7.50E+05 2u: 7.72E+02 ir: 1.62E-11 iu: 1.61E+02 rsn:   0
  5 2r: 7.80E-16 2x: 7.50E+05 2u: 2.56E+00 ir: 1.76E-16 iu: 5.30E-01 rsn: rtol
 Step     16 Time=  6.69207E-01 Dt=  1.14998E-01 [d] snes_conv_reason:    3
  newton =   5 [      73] linear =     5 [        73] cuts =  0 [   2]
  --> max chng: dpmx=   2.4070E+04

== RICHARDS FLOW ===============================================================
  0 2r: 3.03E-06 2x: 0.00E+00 2u: 0.00E+00 ir: 4.02E-07 iu: 0.00E+00 rsn:   0
  1 2r: 2.85E-07 2x: 7.67E+05 2u: 3.16E+04 ir: 5.09E-08 iu: 5.96E+03 rsn:   0
  2 2r: 4.10E-09 2x: 7.66E+05 2u: 3.10E+03 ir: 8.97E-10 iu: 6.35E+02 rsn:   0
  3 2r: 9.78E-13 2x: 7.66E+05 2u: 4.83E+01 ir: 2.18E-13 iu: 1.02E+01 rsn:   0
  4 2r: 1.46E-19 2x: 7.66E+05 2u: 1.11E-02 ir: 2.71E-20 iu: 2.40E-03 rsn: rtol
 Step     17 Time=  7.07157E-01 Dt=  3.79495E-02 [d] snes_conv_reason:    3
  newton =   4 [      77] linear =     4 [        77] cuts =  0 [   2]
  --> max chng: dpmx=   5.4350E+03

== RICHARDS FLOW ===============================================================
  0 2r: 2.99E-06 2x: 0.00E+00 2u: 0.00E+00 ir: 3.87E-07 iu: 0.00E+00 rsn:   0
  1 2r: 8.92E-07 2x: 7.98E+05 2u: 6.13E+04 ir: 1.81E-07 iu: 1.29E+04 rsn:   0
  2 2r: 7.36E-08 2x: 7.94E+05 2u: 1.03E+04 ir: 1.52E-08 iu: 1.97E+03 rsn:   0
  3 2r: 4.23E-10 2x: 7.93E+05 2u: 1.25E+03 ir: 9.02E-11 iu: 2.22E+02 rsn:   0
  4 2r: 1.45E-14 2x: 7.93E+05 2u: 6.42E+00 ir: 3.14E-15 iu: 1.06E+00 rsn: rtol
 Step     18 Time=  7.83056E-01 Dt=  7.58989E-02 [d] snes_conv_reason:    3
  newton =   4 [      81] linear =     4 [        81] cuts =  0 [   2]
  --> max chng: dpmx=   1.1243E+04

== RICHARDS FLOW ===============================================================
  0 2r: 2.90E-06 2x: 0.00E+00 2u: 0.00E+00 ir: 3.65E-07 iu: 0.00E+00 rsn:   0
  1 2r: 3.02E-06 2x: 8.56E+05 2u: 1.50E+05 ir: 6.15E-07 iu: 2.77E+04 rsn:   0
  2 2r: 6.97E-07 2x: 8.43E+05 2u: 2.77E+04 ir: 1.30E-07 iu: 5.78E+03 rsn:   0
  3 2r: 3.92E-08 2x: 8.42E+05 2u: 9.43E+03 ir: 7.28E-09 iu: 2.58E+03 rsn:   0
  4 2r: 1.36E-10 2x: 8.42E+05 2u: 6.15E+02 ir: 2.67E-11 iu: 1.17E+02 rsn:   0
  5 2r: 1.79E-15 2x: 8.42E+05 2u: 1.92E+00 ir: 3.56E-16 iu: 3.74E-01 rsn: rtol
 Step     19 Time=  9.34854E-01 Dt=  1.51798E-01 [d] snes_conv_reason:    3
  newton =   5 [      86] linear =     5 [        86] cuts =  0 [   2]
  --> max chng: dpmx=   2.4601E+04

== RICHARDS FLOW ===============================================================
  0 2r: 2.74E-06 2x: 0.00E+00 2u: 0.00E+00 ir: 3.37E-07 iu: 0.00E+00 rsn:   0
  1 2r: 2.29E-07 2x: 8.59E+05 2u: 3.94E+04 ir: 3.95E-08 iu: 7.62E+03 rsn:   0
  2 2r: 1.90E-09 2x: 8.57E+05 2u: 3.01E+03 ir: 3.91E-10 iu: 6.11E+02 rsn:   0
  3 2r: 1.27E-13 2x: 8.57E+05 2u: 2.50E+01 ir: 5.64E-14 iu: 5.14E+00 rsn:   0
  4 2r: 1.20E-19 2x: 8.57E+05 2u: 1.85E-03 ir: 2.71E-20 iu: 6.77E-04 rsn: rtol
 Step     20 Time=  9.84947E-01 Dt=  5.00933E-02 [d] snes_conv_reason:    3
  newton =   4 [      90] linear =     4 [        90] cuts =  0 [   2]
  --> max chng: dpmx=   7.0082E+03

== RICHARDS FLOW ===============================================================
  0 2r: 2.72E-06 2x: 0.00E+00 2u: 0.00E+00 ir: 3.19E-07 iu: 0.00E+00 rsn:   0
  1 2r: 7.13E-07 2x: 8.93E+05 2u: 8.39E+04 ir: 1.38E-07 iu: 1.55E+04 rsn:   0
  2 2r: 5.10E-08 2x: 8.88E+05 2u: 1.36E+04 ir: 1.08E-08 iu: 2.73E+03 rsn:   0
  3 2r: 2.32E-10 2x: 8.87E+05 2u: 1.24E+03 ir: 5.14E-11 iu: 1.98E+02 rsn:   0
  4 2r: 4.60E-15 2x: 8.87E+05 2u: 5.01E+00 ir: 1.04E-15 iu: 9.14E-01 rsn: rtol
 Step     21 Time=  1.08513E+00 Dt=  1.00187E-01 [d] snes_conv_reason:    3
  newton =   4 [      94] linear =     4 [        94] cuts =  0 [   2]
  --> max chng: dpmx=   1.2695E+04

== RICHARDS FLOW ===============================================================
  0 2r: 2.68E-06 2x: 0.00E+00 2u: 0.00E+00 ir: 3.65E-07 iu: 0.00E+00 rsn:   0
  1 2r: 3.73E-06 2x: 9.64E+05 2u: 1.85E+05 ir: 7.77E-07 iu: 3.08E+04 rsn:   0
  2 2r: 1.01E-06 2x: 9.46E+05 2u: 4.01E+04 ir: 1.93E-07 iu: 6.65E+03 rsn:   0
  3 2r: 8.59E-08 2x: 9.45E+05 2u: 1.63E+04 ir: 1.62E-08 iu: 4.76E+03 rsn:   0
  4 2r: 7.06E-10 2x: 9.45E+05 2u: 1.74E+03 ir: 1.46E-10 iu: 5.55E+02 rsn:   0
  5 2r: 5.62E-14 2x: 9.45E+05 2u: 1.39E+01 ir: 2.02E-14 iu: 5.12E+00 rsn:   0
  6 2r: 8.55E-20 2x: 9.45E+05 2u: 1.29E-03 ir: 2.37E-20 iu: 6.60E-04 rsn: rtol
 Step     22 Time=  1.28551E+00 Dt=  2.00373E-01 [d] snes_conv_reason:    3
  newton =   6 [     100] linear =     6 [       100] cuts =  0 [   2]
  --> max chng: dpmx=   2.6693E+04

== RICHARDS FLOW ===============================================================
  0 2r: 2.59E-06 2x: 0.00E+00 2u: 0.00E+00 ir: 3.64E-07 iu: 0.00E+00 rsn:   0
  1 2r: 2.60E-07 2x: 9.64E+05 2u: 4.47E+04 ir: 4.99E-08 iu: 8.07E+03 rsn:   0
  2 2r: 2.81E-09 2x: 9.62E+05 2u: 3.69E+03 ir: 5.60E-10 iu: 7.12E+02 rsn:   0
  3 2r: 2.79E-13 2x: 9.62E+05 2u: 3.92E+01 ir: 7.99E-14 iu: 7.46E+00 rsn:   0
  4 2r: 1.27E-19 2x: 9.62E+05 2u: 4.19E-03 ir: 3.05E-20 iu: 9.26E-04 rsn: rtol
 Step     23 Time=  1.35163E+00 Dt=  6.61232E-02 [d] snes_conv_reason:    3
  newton =   4 [     104] linear =     4 [       104] cuts =  0 [   2]
  --> max chng: dpmx=   7.3495E+03

== RICHARDS FLOW ===============================================================
  0 2r: 2.56E-06 2x: 0.00E+00 2u: 0.00E+00 ir: 3.47E-07 iu: 0.00E+00 rsn:   0
  1 2r: 8.04E-07 2x: 1.00E+06 2u: 9.59E+04 ir: 1.46E-07 iu: 1.64E+04 rsn:   0
  2 2r: 7.23E-08 2x: 9.97E+05 2u: 1.50E+04 ir: 1.51E-08 iu: 2.95E+03 rsn:   0
  3 2r: 5.65E-10 2x: 9.96E+05 2u: 1.98E+03 ir: 1.26E-10 iu: 3.67E+02 rsn:   0
  4 2r: 3.28E-14 2x: 9.96E+05 2u: 1.31E+01 ir: 7.46E-15 iu: 2.23E+00 rsn:   0
  5 2r: 1.08E-19 2x: 9.96E+05 2u: 8.13E-04 ir: 2.88E-20 iu: 1.56E-04 rsn: rtol
 Step     24 Time=  1.48388E+00 Dt=  1.32246E-01 [d] snes_conv_reason:    3
  newton =   5 [     109] linear =     5 [       109] cuts =  0 [   2]
  --> max chng: dpmx=   1.3350E+04

== RICHARDS FLOW ===============================================================
  0 2r: 2.51E-06 2x: 0.00E+00 2u: 0.00E+00 ir: 3.18E-07 iu: 0.00E+00 rsn:   0
  1 2r: 1.42E-07 2x: 1.01E+06 2u: 2.67E+04 ir: 2.64E-08 iu: 4.00E+03 rsn:   0
  2 2r: 7.11E-10 2x: 1.01E+06 2u: 1.19E+03 ir: 1.58E-10 iu: 2.44E+02 rsn:   0
  3 2r: 2.05E-14 2x: 1.01E+06 2u: 6.14E+00 ir: 4.72E-15 iu: 1.23E+00 rsn: rtol
 Step     25 Time=  1.52752E+00 Dt=  4.36413E-02 [d] snes_conv_reason:    3
  newton =   3 [     112] linear =     3 [       112] cuts =  0 [   2]
  --> max chng: dpmx=   3.8310E+03

== RICHARDS FLOW ===============================================================
  0 2r: 2.49E-06 2x: 0.00E+00 2u: 0.00E+00 ir: 3.16E-07 iu: 0.00E+00 rsn:   0
  1 2r: 3.37E-07 2x: 1.03E+06 2u: 6.00E+04 ir: 6.79E-08 iu: 1.05E+04 rsn:   0
  2 2r: 8.28E-09 2x: 1.03E+06 2u: 5.09E+03 ir: 1.80E-09 iu: 9.17E+02 rsn:   0
  3 2r: 4.70E-12 2x: 1.03E+06 2u: 9.10E+01 ir: 9.90E-13 iu: 2.30E+01 rsn:   0
  4 2r: 1.29E-18 2x: 1.03E+06 2u: 6.18E-02 ir: 2.95E-19 iu: 1.37E-02 rsn: rtol
 Step     26 Time=  1.61480E+00 Dt=  8.72826E-02 [d] snes_conv_reason:    3
  newton =   4 [     116] linear =     4 [       116] cuts =  0 [   2]
  --> max chng: dpmx=   9.7402E+03

== RICHARDS FLOW ===============================================================
  0 2r: 2.46E-06 2x: 0.00E+00 2u: 0.00E+00 ir: 3.15E-07 iu: 0.00E+00 rsn:   0
  1 2r: 9.39E-07 2x: 1.08E+06 2u: 1.34E+05 ir: 1.50E-07 iu: 2.52E+04 rsn:   0
  2 2r: 1.06E-07 2x: 1.07E+06 2u: 2.52E+04 ir: 2.02E-08 iu: 5.05E+03 rsn:   0
  3 2r: 1.74E-09 2x: 1.07E+06 2u: 4.87E+03 ir: 4.12E-10 iu: 9.18E+02 rsn:   0
  4 2r: 4.74E-13 2x: 1.07E+06 2u: 6.40E+01 ir: 1.14E-13 iu: 1.29E+01 rsn:   0
  5 2r: 1.18E-19 2x: 1.07E+06 2u: 1.90E-02 ir: 2.63E-20 iu: 3.52E-03 rsn: rtol
 Step     27 Time=  1.78937E+00 Dt=  1.74565E-01 [d] snes_conv_reason:    3
  newton =   5 [     121] linear =     5 [       121] cuts =  0 [   2]
  --> max chng: dpmx=   1.9408E+04

== RICHARDS FLOW ===============================================================
  0 2r: 2.41E-06 2x: 0.00E+00 2u: 0.00E+00 ir: 2.98E-07 iu: 0.00E+00 rsn:   0
  1 2r: 1.67E-07 2x: 1.08E+06 2u: 3.33E+04 ir: 2.90E-08 iu: 5.34E+03 rsn:   0
  2 2r: 1.29E-09 2x: 1.08E+06 2u: 2.06E+03 ir: 2.90E-10 iu: 4.20E+02 rsn:   0
  3 2r: 9.81E-14 2x: 1.08E+06 2u: 1.82E+01 ir: 2.37E-14 iu: 3.69E+00 rsn:   0
  4 2r: 1.72E-19 2x: 1.08E+06 2u: 1.30E-03 ir: 4.40E-20 iu: 2.84E-04 rsn: rtol
 Step     28 Time=  1.84697E+00 Dt=  5.76065E-02 [d] snes_conv_reason:    3
  newton =   4 [     125] linear =     4 [       125] cuts =  0 [   2]
  --> max chng: dpmx=   4.9943E+03

== RICHARDS FLOW ===============================================================
  0 2r: 2.39E-06 2x: 0.00E+00 2u: 0.00E+00 ir: 2.88E-07 iu: 0.00E+00 rsn:   0
  1 2r: 4.53E-07 2x: 1.11E+06 2u: 7.42E+04 ir: 9.20E-08 iu: 1.12E+04 rsn:   0
  2 2r: 2.16E-08 2x: 1.11E+06 2u: 7.51E+03 ir: 4.68E-09 iu: 1.56E+03 rsn:   0
  3 2r: 4.21E-11 2x: 1.11E+06 2u: 3.92E+02 ir: 9.42E-12 iu: 6.56E+01 rsn:   0
  4 2r: 1.50E-16 2x: 1.11E+06 2u: 7.61E-01 ir: 3.50E-17 iu: 1.44E-01 rsn: rtol
 Step     29 Time=  1.96218E+00 Dt=  1.15213E-01 [d] snes_conv_reason:    3
  newton =   4 [     129] linear =     4 [       129] cuts =  0 [   2]
  --> max chng: dpmx=   1.0852E+04

== RICHARDS FLOW ===============================================================
  0 2r: 2.35E-06 2x: 0.00E+00 2u: 0.00E+00 ir: 2.87E-07 iu: 0.00E+00 rsn:   0
  1 2r: 1.29E-06 2x: 1.17E+06 2u: 1.74E+05 ir: 2.51E-07 iu: 3.25E+04 rsn:   0
  2 2r: 2.01E-07 2x: 1.16E+06 2u: 3.50E+04 ir: 3.08E-08 iu: 6.79E+03 rsn:   0
  3 2r: 5.52E-09 2x: 1.16E+06 2u: 1.39E+04 ir: 1.29E-09 iu: 2.45E+03 rsn:   0
  4 2r: 7.30E-12 2x: 1.16E+06 2u: 3.90E+02 ir: 1.83E-12 iu: 7.51E+01 rsn:   0
  5 2r: 1.06E-17 2x: 1.16E+06 2u: 3.80E-01 ir: 2.82E-18 iu: 7.46E-02 rsn: rtol
 Step     30 Time=  2.19261E+00 Dt=  2.30426E-01 [d] snes_conv_reason:    3
  newton =   5 [     134] linear =     5 [       134] cuts =  0 [   2]
  --> max chng: dpmx=   2.4297E+04

== RICHARDS FLOW ===============================================================
  0 2r: 2.28E-06 2x: 0.00E+00 2u: 0.00E+00 ir: 2.75E-07 iu: 0.00E+00 rsn:   0
  1 2r: 1.92E-07 2x: 1.18E+06 2u: 4.38E+04 ir: 3.19E-08 iu: 6.49E+03 rsn:   0
  2 2r: 2.19E-09 2x: 1.18E+06 2u: 3.00E+03 ir: 4.91E-10 iu: 6.04E+02 rsn:   0
  3 2r: 3.79E-13 2x: 1.18E+06 2u: 4.21E+01 ir: 9.44E-14 iu: 7.97E+00 rsn:   0
  4 2r: 1.62E-19 2x: 1.18E+06 2u: 7.24E-03 ir: 3.73E-20 iu: 1.40E-03 rsn: rtol
 Step     31 Time=  2.26865E+00 Dt=  7.60406E-02 [d] snes_conv_reason:    3
  newton =   4 [     138] linear =     4 [       138] cuts =  0 [   2]
  --> max chng: dpmx=   5.9848E+03

== RICHARDS FLOW ===============================================================
  0 2r: 2.26E-06 2x: 0.00E+00 2u: 0.00E+00 ir: 2.67E-07 iu: 0.00E+00 rsn:   0
  1 2r: 5.63E-07 2x: 1.21E+06 2u: 1.11E+05 ir: 1.17E-07 iu: 1.50E+04 rsn:   0
  2 2r: 4.22E-08 2x: 1.21E+06 2u: 1.08E+04 ir: 9.23E-09 iu: 1.96E+03 rsn:   0
  3 2r: 2.02E-10 2x: 1.21E+06 2u: 1.12E+03 ir: 4.52E-11 iu: 1.77E+02 rsn:   0
  4 2r: 4.23E-15 2x: 1.21E+06 2u: 5.26E+00 ir: 1.00E-15 iu: 8.91E-01 rsn: rtol
 Step     32 Time=  2.42073E+00 Dt=  1.52081E-01 [d] snes_conv_reason:    3
  newton =   4 [     142] linear =     4 [       142] cuts =  0 [   2]
  --> max chng: dpmx=   1.4289E+04

== RICHARDS FLOW ===============================================================
  0 2r: 2.23E-06 2x: 0.00E+00 2u: 0.00E+00 ir: 2.63E-07 iu: 0.00E+00 rsn:   0
  1 2r: 1.61E-06 2x: 1.33E+06 2u: 3.00E+05 ir: 2.82E-07 iu: 4.75E+04 rsn:   0
  2 2r: 4.69E-07 2x: 1.29E+06 2u: 9.40E+04 ir: 1.08E-07 iu: 3.00E+04 rsn:   0
  3 2r: 5.13E-08 2x: 1.29E+06 2u: 2.54E+04 ir: 1.15E-08 iu: 1.56E+04 rsn:   0
  4 2r: 6.03E-10 2x: 1.29E+06 2u: 7.86E+03 ir: 1.23E-10 iu: 2.94E+03 rsn:   0
  5 2r: 4.29E-14 2x: 1.29E+06 2u: 1.42E+02 ir: 9.11E-15 iu: 3.83E+01 rsn:   0
  6 2r: 1.93E-19 2x: 1.29E+06 2u: 1.03E-02 ir: 4.32E-20 iu: 2.83E-03 rsn: rtol
 Step     33 Time=  2.72489E+00 Dt=  3.04162E-01 [d] snes_conv_reason:    3
  newton =   6 [     148] linear =     6 [       148] cuts =  0 [   2]
  --> max chng: dpmx=   3.2171E+04

== RICHARDS FLOW ===============================================================
  0 2r: 2.26E-06 2x: 0.00E+00 2u: 0.00E+00 ir: 2.71E-07 iu: 0.00E+00 rsn:   0
  1 2r: 2.53E-07 2x: 1.32E+06 2u: 5.60E+04 ir: 5.21E-08 iu: 8.49E+03 rsn:   0
  2 2r: 4.58E-09 2x: 1.31E+06 2u: 5.83E+03 ir: 1.17E-09 iu: 9.53E+02 rsn:   0
  3 2r: 1.46E-12 2x: 1.31E+06 2u: 1.28E+02 ir: 3.79E-13 iu: 2.63E+01 rsn:   0
  4 2r: 2.61E-19 2x: 1.31E+06 2u: 8.52E-02 ir: 5.42E-20 iu: 2.15E-02 rsn: rtol
 Step     34 Time=  2.82527E+00 Dt=  1.00374E-01 [d] snes_conv_reason:    3
  newton =   4 [     152] linear =     4 [       152] cuts =  0 [   2]
  --> max chng: dpmx=   7.8212E+03

== RICHARDS FLOW ===============================================================
  0 2r: 2.30E-06 2x: 0.00E+00 2u: 0.00E+00 ir: 3.10E-07 iu: 0.00E+00 rsn:   0
  1 2r: 8.90E-07 2x: 1.36E+06 2u: 1.07E+05 ir: 2.18E-07 iu: 1.85E+04 rsn:   0
  2 2r: 3.43E-07 2x: 1.35E+06 2u: 3.21E+04 ir: 6.88E-08 iu: 1.16E+04 rsn:   0
  3 2r: 9.70E-09 2x: 1.36E+06 2u: 1.53E+04 ir: 1.87E-09 iu: 8.13E+03 rsn:   0
  4 2r: 3.82E-12 2x: 1.36E+06 2u: 4.73E+02 ir: 8.33E-13 iu: 1.59E+02 rsn:   0
  5 2r: 1.44E-18 2x: 1.36E+06 2u: 1.43E-01 ir: 3.12E-19 iu: 3.38E-02 rsn: rtol
 Step     35 Time=  3.02602E+00 Dt=  2.00747E-01 [d] snes_conv_reason:    3
  newton =   5 [     157] linear =     5 [       157] cuts =  0 [   2]
  --> max chng: dpmx=   1.5783E+04

== RICHARDS FLOW ===============================================================
  0 2r: 2.38E-06 2x: 0.00E+00 2u: 0.00E+00 ir: 3.58E-07 iu: 0.00E+00 rsn:   0
  1 2r: 1.65E-07 2x: 1.37E+06 2u: 2.51E+04 ir: 3.73E-08 iu: 4.86E+03 rsn:   0
  2 2r: 1.10E-09 2x: 1.37E+06 2u: 1.52E+03 ir: 2.79E-10 iu: 2.85E+02 rsn:   0
  3 2r: 4.03E-14 2x: 1.37E+06 2u: 9.84E+00 ir: 1.04E-14 iu: 1.74E+00 rsn:   0
  4 2r: 2.37E-19 2x: 1.37E+06 2u: 6.03E-04 ir: 5.42E-20 iu: 1.43E-04 rsn: rtol
 Step     36 Time=  3.09226E+00 Dt=  6.62465E-02 [d] snes_conv_reason:    3
  newton =   4 [     161] linear =     4 [       161] cuts =  0 [   2]
  --> max chng: dpmx=   4.6942E+03

== RICHARDS FLOW ===============================================================
  0 2r: 2.40E-06 2x: 0.00E+00 2u: 0.00E+00 ir: 3.70E-07 iu: 0.00E+00 rsn:   0
  1 2r: 4.22E-07 2x: 1.39E+06 2u: 4.96E+04 ir: 1.01E-07 iu: 1.09E+04 rsn:   0
  2 2r: 1.27E-08 2x: 1.39E+06 2u: 5.45E+03 ir: 3.12E-09 iu: 1.15E+03 rsn:   0
  3 2r: 6.11E-12 2x: 1.39E+06 2u: 1.43E+02 ir: 1.27E-12 iu: 2.81E+01 rsn:   0
  4 2r: 7.36E-18 2x: 1.39E+06 2u: 1.34E-01 ir: 2.01E-18 iu: 3.18E-02 rsn: rtol
 Step     37 Time=  3.22475E+00 Dt=  1.32493E-01 [d] snes_conv_reason:    3
  newton =   4 [     165] linear =     4 [       165] cuts =  0 [   2]
  --> max chng: dpmx=   9.8701E+03

== RICHARDS FLOW ===============================================================
  0 2r: 2.43E-06 2x: 0.00E+00 2u: 0.00E+00 ir: 3.84E-07 iu: 0.00E+00 rsn:   0
  1 2r: 1.43E-06 2x: 1.43E+06 2u: 9.67E+04 ir: 3.49E-07 iu: 2.50E+04 rsn:   0
  2 2r: 2.38E-07 2x: 1.43E+06 2u: 6.51E+04 ir: 8.15E-08 iu: 1.92E+04 rsn:   0
  3 2r: 5.74E-09 2x: 1.42E+06 2u: 7.64E+04 ir: 2.23E-09 iu: 2.38E+04 rsn:   0
  4 2r: 3.13E-12 2x: 1.42E+06 2u: 1.64E+03 ir: 1.50E-12 iu: 5.29E+02 rsn:   0
  5 2r: 2.14E-18 2x: 1.42E+06 2u: 5.34E-01 ir: 1.19E-18 iu: 3.18E-01 rsn: rtol
 Step     38 Time=  3.48974E+00 Dt=  2.64986E-01 [d] snes_conv_reason:    3
  newton =   5 [     170] linear =     5 [       170] cuts =  0 [   2]
  --> max chng: dpmx=   2.1194E+04

== RICHARDS FLOW ===============================================================
  0 2r: 2.43E-06 2x: 0.00E+00 2u: 0.00E+00 ir: 3.89E-07 iu: 0.00E+00 rsn:   0
  1 2r: 1.90E-07 2x: 1.44E+06 2u: 2.73E+04 ir: 4.30E-08 iu: 6.38E+03 rsn:   0
  2 2r: 1.39E-09 2x: 1.43E+06 2u: 5.72E+03 ir: 3.25E-10 iu: 1.70E+03 rsn:   0
  3 2r: 8.74E-14 2x: 1.43E+06 2u: 1.68E+02 ir: 2.53E-14 iu: 5.42E+01 rsn:   0
  4 2r: 2.67E-19 2x: 1.43E+06 2u: 2.45E-02 ir: 6.27E-20 iu: 8.37E-03 rsn: rtol
 Step     39 Time=  3.57719E+00 Dt=  8.74454E-02 [d] snes_conv_reason:    3
  newton =   4 [     174] linear =     4 [       174] cuts =  0 [   2]
  --> max chng: dpmx=   5.9106E+03

== RICHARDS FLOW ===============================================================
  0 2r: 2.41E-06 2x: 0.00E+00 2u: 0.00E+00 ir: 3.79E-07 iu: 0.00E+00 rsn:   0
  1 2r: 4.61E-07 2x: 1.46E+06 2u: 1.27E+05 ir: 1.05E-07 iu: 3.59E+04 rsn:   0
  2 2r: 1.79E-08 2x: 1.46E+06 2u: 3.04E+04 ir: 3.69E-09 iu: 9.58E+03 rsn:   0
  3 2r: 6.88E-11 2x: 1.47E+06 2u: 1.96E+04 ir: 2.13E-11 iu: 5.42E+03 rsn:   0
  4 2r: 3.25E-15 2x: 1.47E+06 2u: 8.62E+01 ir: 1.49E-15 iu: 3.34E+01 rsn: rtol
 Step     40 Time=  3.75208E+00 Dt=  1.74891E-01 [d] snes_conv_reason:    3
  newton =   4 [     178] linear =     4 [       178] cuts =  0 [   2]
  --> max chng: dpmx=   4.7281E+04

== RICHARDS FLOW ===============================================================
  0 2r: 2.37E-06 2x: 0.00E+00 2u: 0.00E+00 ir: 3.66E-07 iu: 0.00E+00 rsn:   0
  1 2r: 4.27E-01 2x: 1.66E+06 2u: 5.52E+05 ir: 9.16E-02 iu: 1.49E+05 rsn:  -9
  0 2r: 2.37E-06 2x: 0.00E+00 2u: 0.00E+00 ir: 3.66E-07 iu: 0.00E+00 rsn:   0
  1 2r: 2.03E-01 2x: 1.53E+06 2u: 2.39E+05 ir: 4.42E-02 iu: 6.34E+04 rsn:  -9
  0 2r: 2.37E-06 2x: 0.00E+00 2u: 0.00E+00 ir: 3.66E-07 iu: 0.00E+00 rsn:   0
  1 2r: 1.59E-07 2x: 1.49E+06 2u: 1.03E+05 ir: 3.18E-08 iu: 2.72E+04 rsn:   0
  2 2r: 1.59E-08 2x: 1.49E+06 2u: 1.47E+04 ir: 6.32E-09 iu: 4.50E+03 rsn:   0
  3 2r: 3.75E-09 2x: 1.49E+06 2u: 1.06E+04 ir: 1.59E-09 iu: 3.51E+03 rsn:   0
  4 2r: 3.05E-10 2x: 1.49E+06 2u: 3.94E+03 ir: 1.43E-10 iu: 1.56E+03 rsn:   0
  5 2r: 2.41E-12 2x: 1.49E+06 2u: 3.69E+02 ir: 1.28E-12 iu: 1.69E+02 rsn:   0
  6 2r: 1.69E-16 2x: 1.49E+06 2u: 2.93E+00 ir: 1.03E-16 iu: 1.53E+00 rsn: rtol
 Step     41 Time=  3.83952E+00 Dt=  8.74454E-02 [d] snes_conv_reason:    3
  newton =   8 [     186] linear =     8 [       186] cuts =  2 [   4]
  --> max chng: dpmx=   2.2809E+04

== RICHARDS FLOW ===============================================================
  0 2r: 2.33E-06 2x: 0.00E+00 2u: 0.00E+00 ir: 3.51E-07 iu: 0.00E+00 rsn:   0
  1 2r: 1.68E-07 2x: 1.51E+06 2u: 7.26E+04 ir: 2.81E-08 iu: 2.66E+04 rsn:   0
  2 2r: 3.04E-08 2x: 1.50E+06 2u: 1.23E+04 ir: 9.67E-09 iu: 4.43E+03 rsn:   0
  3 2r: 6.34E-09 2x: 1.50E+06 2u: 8.79E+03 ir: 2.50E-09 iu: 3.25E+03 rsn:   0
  4 2r: 4.79E-10 2x: 1.50E+06 2u: 2.94E+03 ir: 2.77E-10 iu: 1.44E+03 rsn:   0
  5 2r: 5.03E-12 2x: 1.50E+06 2u: 3.09E+02 ir: 4.02E-12 iu: 2.00E+02 rsn:   0
  6 2r: 9.16E-16 2x: 1.50E+06 2u: 3.67E+00 ir: 8.69E-16 iu: 3.00E+00 rsn: rtol
 Step     42 Time=  3.92697E+00 Dt=  8.74454E-02 [d] snes_conv_reason:    3
  newton =   6 [     192] linear =     6 [       192] cuts =  0 [   4]
  --> max chng: dpmx=   2.2707E+04

== RICHARDS FLOW ===============================================================
  0 2r: 2.29E-06 2x: 0.00E+00 2u: 0.00E+00 ir: 3.38E-07 iu: 0.00E+00 rsn:   0
  1 2r: 1.53E-07 2x: 1.52E+06 2u: 5.47E+04 ir: 2.96E-08 iu: 2.67E+04 rsn:   0
  2 2r: 1.62E-08 2x: 1.52E+06 2u: 8.95E+03 ir: 6.60E-09 iu: 4.55E+03 rsn:   0
  3 2r: 2.15E-09 2x: 1.52E+06 2u: 4.84E+03 ir: 1.57E-09 iu: 2.98E+03 rsn:   0
  4 2r: 1.40E-10 2x: 1.52E+06 2u: 1.35E+03 ir: 1.30E-10 iu: 1.22E+03 rsn:   0
  5 2r: 1.02E-12 2x: 1.52E+06 2u: 1.23E+02 ir: 1.01E-12 iu: 1.20E+02 rsn:   0
  6 2r: 6.13E-17 2x: 1.52E+06 2u: 9.45E-01 ir: 6.13E-17 iu: 9.43E-01 rsn: rtol
 Step     43 Time=  4.01441E+00 Dt=  8.74454E-02 [d] snes_conv_reason:    3
  newton =   6 [     198] linear =     6 [       198] cuts =  0 [   4]
  --> max chng: dpmx=   2.2508E+04

== RICHARDS FLOW ===============================================================
  0 2r: 2.25E-06 2x: 0.00E+00 2u: 0.00E+00 ir: 3.23E-07 iu: 0.00E+00 rsn:   0
  1 2r: 1.53E-07 2x: 1.53E+06 2u: 4.69E+04 ir: 3.00E-08 iu: 2.58E+04 rsn:   0
  2 2r: 1.27E-08 2x: 1.53E+06 2u: 7.10E+03 ir: 5.67E-09 iu: 4.51E+03 rsn:   0
  3 2r: 1.18E-09 2x: 1.53E+06 2u: 5.34E+03 ir: 1.10E-09 iu: 2.23E+03 rsn:   0
  4 2r: 5.76E-11 2x: 1.53E+06 2u: 6.95E+02 ir: 5.75E-11 iu: 6.61E+02 rsn:   0
  5 2r: 1.72E-13 2x: 1.53E+06 2u: 3.86E+01 ir: 1.72E-13 iu: 3.86E+01 rsn:   0
  6 2r: 1.57E-18 2x: 1.53E+06 2u: 1.16E-01 ir: 1.54E-18 iu: 1.16E-01 rsn: rtol
 Step     44 Time=  4.10186E+00 Dt=  8.74454E-02 [d] snes_conv_reason:    3
  newton =   6 [     204] linear =     6 [       204] cuts =  0 [   4]
  --> max chng: dpmx=   2.1448E+04

== RICHARDS FLOW ===============================================================
  0 2r: 2.21E-06 2x: 0.00E+00 2u: 0.00E+00 ir: 3.05E-07 iu: 0.00E+00 rsn:   0
  1 2r: 1.63E-07 2x: 1.54E+06 2u: 4.85E+04 ir: 3.13E-08 iu: 2.57E+04 rsn:   0
  2 2r: 1.33E-08 2x: 1.54E+06 2u: 8.81E+03 ir: 4.48E-09 iu: 4.27E+03 rsn:   0
  3 2r: 7.80E-10 2x: 1.54E+06 2u: 1.07E+04 ir: 7.32E-10 iu: 3.76E+03 rsn:   0
  4 2r: 2.60E-11 2x: 1.54E+06 2u: 5.15E+02 ir: 2.60E-11 iu: 4.39E+02 rsn:   0
  5 2r: 3.47E-14 2x: 1.54E+06 2u: 1.67E+01 ir: 3.47E-14 iu: 1.67E+01 rsn:   0
  6 2r: 3.02E-19 2x: 1.54E+06 2u: 2.24E-02 ir: 6.61E-20 iu: 2.24E-02 rsn: rtol
 Step     45 Time=  4.18930E+00 Dt=  8.74454E-02 [d] snes_conv_reason:    3
  newton =   6 [     210] linear =     6 [       210] cuts =  0 [   4]
  --> max chng: dpmx=   2.0436E+04

== RICHARDS FLOW ===============================================================
  0 2r: 2.16E-06 2x: 0.00E+00 2u: 0.00E+00 ir: 2.86E-07 iu: 0.00E+00 rsn:   0
  1 2r: 1.77E-07 2x: 1.56E+06 2u: 1.12E+05 ir: 3.50E-08 iu: 3.74E+04 rsn:   0
  2 2r: 1.37E-08 2x: 1.55E+06 2u: 8.08E+03 ir: 4.08E-09 iu: 3.27E+03 rsn:   0
  3 2r: 7.28E-10 2x: 1.55E+06 2u: 9.01E+03 ir: 7.00E-10 iu: 3.11E+03 rsn:   0
  4 2r: 2.73E-11 2x: 1.55E+06 2u: 5.81E+02 ir: 2.73E-11 iu: 5.42E+02 rsn:   0
  5 2r: 4.41E-14 2x: 1.55E+06 2u: 2.29E+01 ir: 4.41E-14 iu: 2.29E+01 rsn:   0
  6 2r: 3.51E-19 2x: 1.55E+06 2u: 3.70E-02 ir: 1.15E-19 iu: 3.70E-02 rsn: rtol
 Step     46 Time=  4.27675E+00 Dt=  8.74454E-02 [d] snes_conv_reason:    3
  newton =   6 [     216] linear =     6 [       216] cuts =  0 [   4]
  --> max chng: dpmx=   3.7580E+04

== RICHARDS FLOW ===============================================================
  0 2r: 2.11E-06 2x: 0.00E+00 2u: 0.00E+00 ir: 2.75E-07 iu: 0.00E+00 rsn:   0
  1 2r: 4.41E-08 2x: 1.56E+06 2u: 4.29E+04 ir: 8.58E-09 iu: 1.29E+04 rsn:   0
  2 2r: 2.50E-10 2x: 1.56E+06 2u: 4.47E+03 ir: 9.35E-11 iu: 1.82E+03 rsn:   0
  3 2r: 3.78E-13 2x: 1.56E+06 2u: 2.09E+02 ir: 2.37E-13 iu: 1.07E+02 rsn:   0
  4 2r: 2.00E-18 2x: 1.56E+06 2u: 4.37E-01 ir: 1.44E-18 iu: 2.70E-01 rsn: rtol
 Step     47 Time=  4.30561E+00 Dt=  2.88570E-02 [d] snes_conv_reason:    3
  newton =   4 [     220] linear =     4 [       220] cuts =  0 [   4]
  --> max chng: dpmx=   1.1655E+04

== RICHARDS FLOW ===============================================================
  0 2r: 2.10E-06 2x: 0.00E+00 2u: 0.00E+00 ir: 2.75E-07 iu: 0.00E+00 rsn:   0
  1 2r: 1.94E-07 2x: 1.58E+06 2u: 9.37E+04 ir: 6.82E-08 iu: 3.00E+04 rsn:   0
  2 2r: 6.44E-08 2x: 1.58E+06 2u: 1.38E+04 ir: 2.68E-08 iu: 5.01E+03 rsn:   0
  3 2r: 2.12E-08 2x: 1.58E+06 2u: 1.20E+04 ir: 8.94E-09 iu: 3.85E+03 rsn:   0
  4 2r: 4.29E-09 2x: 1.58E+06 2u: 7.08E+03 ir: 1.86E-09 iu: 2.62E+03 rsn:   0
  5 2r: 2.52E-10 2x: 1.58E+06 2u: 2.12E+03 ir: 1.14E-10 iu: 8.47E+02 rsn:   0
  6 2r: 9.93E-13 2x: 1.58E+06 2u: 1.36E+02 ir: 4.70E-13 iu: 5.82E+01 rsn:   0
  7 2r: 1.63E-17 2x: 1.58E+06 2u: 5.31E-01 ir: 8.11E-18 iu: 2.43E-01 rsn: rtol
 Step     48 Time=  4.36332E+00 Dt=  5.77140E-02 [d] snes_conv_reason:    3
  newton =   7 [     227] linear =     7 [       227] cuts =  0 [   4]
  --> max chng: dpmx=   2.4585E+04

== RICHARDS FLOW ===============================================================
  0 2r: 2.07E-06 2x: 0.00E+00 2u: 0.00E+00 ir: 2.75E-07 iu: 0.00E+00 rsn:   0
  1 2r: 3.21E-08 2x: 1.58E+06 2u: 1.82E+04 ir: 6.41E-09 iu: 8.05E+03 rsn:   0
  2 2r: 3.28E-10 2x: 1.58E+06 2u: 1.94E+03 ir: 1.23E-10 iu: 9.12E+02 rsn:   0
  3 2r: 6.26E-13 2x: 1.58E+06 2u: 8.59E+01 ir: 3.33E-13 iu: 4.96E+01 rsn:   0
  4 2r: 3.40E-18 2x: 1.58E+06 2u: 1.91E-01 ir: 2.44E-18 iu: 1.24E-01 rsn: rtol
 Step     49 Time=  4.38237E+00 Dt=  1.90456E-02 [d] snes_conv_reason:    3
  newton =   4 [     231] linear =     4 [       231] cuts =  0 [   4]
  --> max chng: dpmx=   7.6096E+03

== RICHARDS FLOW ===============================================================
  0 2r: 2.06E-06 2x: 0.00E+00 2u: 0.00E+00 ir: 2.74E-07 iu: 0.00E+00 rsn:   0
  1 2r: 7.74E-08 2x: 1.59E+06 2u: 3.79E+04 ir: 1.61E-08 iu: 1.75E+04 rsn:   0
  2 2r: 4.71E-09 2x: 1.59E+06 2u: 6.21E+03 ir: 1.92E-09 iu: 3.17E+03 rsn:   0
  3 2r: 1.75E-10 2x: 1.59E+06 2u: 1.45E+03 ir: 1.12E-10 iu: 9.54E+02 rsn:   0
  4 2r: 5.23E-13 2x: 1.59E+06 2u: 7.74E+01 ir: 4.36E-13 iu: 6.46E+01 rsn:   0
  5 2r: 7.02E-18 2x: 1.59E+06 2u: 2.74E-01 ir: 6.67E-18 iu: 2.54E-01 rsn: rtol
 Step     50 Time=  4.42046E+00 Dt=  3.80912E-02 [d] snes_conv_reason:    3
  newton =   5 [     236] linear =     5 [       236] cuts =  0 [   4]
  --> max chng: dpmx=   1.5962E+04

== RICHARDS FLOW ===============================================================
  0 2r: 2.04E-06 2x: 0.00E+00 2u: 0.00E+00 ir: 2.75E-07 iu: 0.00E+00 rsn:   0
  1 2r: 2.22E-08 2x: 1.59E+06 2u: 9.82E+03 ir: 4.83E-09 iu: 5.02E+03 rsn:   0
  2 2r: 6.58E-11 2x: 1.59E+06 2u: 6.08E+02 ir: 2.48E-11 iu: 3.79E+02 rsn:   0
  3 2r: 1.51E-14 2x: 1.59E+06 2u: 9.95E+00 ir: 1.03E-14 iu: 8.16E+00 rsn: rtol
 Step     51 Time=  4.43303E+00 Dt=  1.25701E-02 [d] snes_conv_reason:    3
  newton =   3 [     239] linear =     3 [       239] cuts =  0 [   4]
  --> max chng: dpmx=   4.7253E+03

== RICHARDS FLOW ===============================================================
  0 2r: 2.04E-06 2x: 0.00E+00 2u: 0.00E+00 ir: 2.76E-07 iu: 0.00E+00 rsn:   0
  1 2r: 4.95E-08 2x: 1.59E+06 2u: 2.05E+04 ir: 1.11E-08 iu: 1.09E+04 rsn:   0
  2 2r: 7.57E-10 2x: 1.59E+06 2u: 2.36E+03 ir: 3.31E-10 iu: 1.58E+03 rsn:   0
  3 2r: 3.26E-12 2x: 1.59E+06 2u: 1.75E+02 ir: 2.76E-12 iu: 1.16E+02 rsn:   0
  4 2r: 1.95E-16 2x: 1.59E+06 2u: 1.10E+00 ir: 1.93E-16 iu: 9.80E-01 rsn: rtol
 Step     52 Time=  4.45817E+00 Dt=  2.51402E-02 [d] snes_conv_reason:    3
  newton =   4 [     243] linear =     4 [       243] cuts =  0 [   4]
  --> max chng: dpmx=   1.0403E+04

== RICHARDS FLOW ===============================================================
  0 2r: 2.03E-06 2x: 0.00E+00 2u: 0.00E+00 ir: 2.77E-07 iu: 0.00E+00 rsn:   0
  1 2r: 1.31E-07 2x: 1.60E+06 2u: 4.43E+04 ir: 2.81E-08 iu: 2.49E+04 rsn:   0
  2 2r: 1.28E-08 2x: 1.60E+06 2u: 7.13E+03 ir: 7.16E-09 iu: 4.52E+03 rsn:   0
  3 2r: 1.33E-09 2x: 1.60E+06 2u: 2.93E+03 ir: 1.24E-09 iu: 2.12E+03 rsn:   0
  4 2r: 5.04E-11 2x: 1.60E+06 2u: 5.51E+02 ir: 5.03E-11 iu: 5.36E+02 rsn:   0
  5 2r: 8.81E-14 2x: 1.60E+06 2u: 2.36E+01 ir: 8.81E-14 iu: 2.35E+01 rsn:   0
  6 2r: 5.02E-19 2x: 1.60E+06 2u: 4.14E-02 ir: 2.69E-19 iu: 4.14E-02 rsn: rtol
 Step     53 Time=  4.50845E+00 Dt=  5.02804E-02 [d] snes_conv_reason:    3
  newton =   6 [     249] linear =     6 [       249] cuts =  0 [   4]
  --> max chng: dpmx=   2.0291E+04

== RICHARDS FLOW ===============================================================
  0 2r: 2.01E-06 2x: 0.00E+00 2u: 0.00E+00 ir: 2.79E-07 iu: 0.00E+00 rsn:   0
  1 2r: 3.36E-08 2x: 1.60E+06 2u: 1.11E+04 ir: 7.69E-09 iu: 7.05E+03 rsn:   0
  2 2r: 1.54E-10 2x: 1.60E+06 2u: 8.13E+02 ir: 6.39E-11 iu: 6.44E+02 rsn:   0
  3 2r: 9.46E-14 2x: 1.60E+06 2u: 2.66E+01 ir: 8.89E-14 iu: 2.55E+01 rsn:   0
  4 2r: 6.42E-19 2x: 1.60E+06 2u: 3.58E-02 ir: 1.90E-19 iu: 3.56E-02 rsn: rtol
 Step     54 Time=  4.52504E+00 Dt=  1.65925E-02 [d] snes_conv_reason:    3
  newton =   4 [     253] linear =     4 [       253] cuts =  0 [   4]
  --> max chng: dpmx=   6.7993E+03

== RICHARDS FLOW ===============================================================
  0 2r: 2.01E-06 2x: 0.00E+00 2u: 0.00E+00 ir: 2.79E-07 iu: 0.00E+00 rsn:   0
  1 2r: 7.85E-08 2x: 1.61E+06 2u: 2.40E+04 ir: 1.76E-08 iu: 1.49E+04 rsn:   0
  2 2r: 1.94E-09 2x: 1.61E+06 2u: 3.15E+03 ir: 8.90E-10 iu: 2.14E+03 rsn:   0
  3 2r: 2.17E-11 2x: 1.61E+06 2u: 3.55E+02 ir: 2.11E-11 iu: 3.01E+02 rsn:   0
  4 2r: 1.23E-14 2x: 1.61E+06 2u: 7.51E+00 ir: 1.23E-14 iu: 7.48E+00 rsn: rtol
 Step     55 Time=  4.55823E+00 Dt=  3.31851E-02 [d] snes_conv_reason:    3
  newton =   4 [     257] linear =     4 [       257] cuts =  0 [   4]
  --> max chng: dpmx=   1.2644E+04

== RICHARDS FLOW ===============================================================
  0 2r: 2.00E-06 2x: 0.00E+00 2u: 0.00E+00 ir: 2.79E-07 iu: 0.00E+00 rsn:   0
  1 2r: 2.68E-07 2x: 1.62E+06 2u: 6.10E+04 ir: 1.07E-07 iu: 3.33E+04 rsn:   0
  2 2r: 5.53E-08 2x: 1.62E+06 2u: 1.83E+04 ir: 4.35E-08 iu: 1.62E+04 rsn:   0
  3 2r: 1.65E-08 2x: 1.62E+06 2u: 2.50E+04 ir: 1.63E-08 iu: 1.46E+04 rsn:   0
  4 2r: 4.78E-09 2x: 1.62E+06 2u: 3.63E+03 ir: 4.78E-09 iu: 3.12E+03 rsn:   0
  5 2r: 6.98E-10 2x: 1.62E+06 2u: 1.84E+03 ir: 6.98E-10 iu: 1.84E+03 rsn:   0
  6 2r: 1.88E-11 2x: 1.62E+06 2u: 3.66E+02 ir: 1.88E-11 iu: 3.66E+02 rsn:   0
  7 2r: 1.43E-14 2x: 1.62E+06 2u: 1.04E+01 ir: 1.43E-14 iu: 1.04E+01 rsn: rtol
 Step     56 Time=  4.62460E+00 Dt=  6.63702E-02 [d] snes_conv_reason:    3
  newton =   7 [     264] linear =     7 [       264] cuts =  0 [   4]
  --> max chng: dpmx=   2.8166E+04

== RICHARDS FLOW ===============================================================
  0 2r: 1.98E-06 2x: 0.00E+00 2u: 0.00E+00 ir: 2.78E-07 iu: 0.00E+00 rsn:   0
  1 2r: 5.14E-08 2x: 1.62E+06 2u: 2.70E+04 ir: 1.07E-08 iu: 9.58E+03 rsn:   0
  2 2r: 3.53E-10 2x: 1.62E+06 2u: 1.31E+03 ir: 1.03E-10 iu: 1.10E+03 rsn:   0
  3 2r: 1.55E-13 2x: 1.62E+06 2u: 5.07E+01 ir: 1.32E-13 iu: 4.30E+01 rsn:   0
  4 2r: 6.49E-19 2x: 1.62E+06 2u: 5.78E-02 ir: 2.78E-19 iu: 5.40E-02 rsn: rtol
 Step     57 Time=  4.64650E+00 Dt=  2.19022E-02 [d] snes_conv_reason:    3
  newton =   4 [     268] linear =     4 [       268] cuts =  0 [   4]
  --> max chng: dpmx=   9.6525E+03

== RICHARDS FLOW ===============================================================
  0 2r: 1.98E-06 2x: 0.00E+00 2u: 0.00E+00 ir: 2.78E-07 iu: 0.00E+00 rsn:   0
  1 2r: 1.27E-07 2x: 1.63E+06 2u: 8.69E+04 ir: 2.64E-08 iu: 3.12E+04 rsn:   0
  2 2r: 4.85E-09 2x: 1.63E+06 2u: 8.93E+03 ir: 2.42E-09 iu: 3.96E+03 rsn:   0
  3 2r: 1.97E-10 2x: 1.63E+06 2u: 1.53E+03 ir: 1.96E-10 iu: 1.20E+03 rsn:   0
  4 2r: 1.44E-12 2x: 1.63E+06 2u: 1.15E+02 ir: 1.44E-12 iu: 1.15E+02 rsn:   0
  5 2r: 7.88E-17 2x: 1.63E+06 2u: 8.58E-01 ir: 7.88E-17 iu: 8.58E-01 rsn: rtol
 Step     58 Time=  4.69030E+00 Dt=  4.38043E-02 [d] snes_conv_reason:    3
  newton =   5 [     273] linear =     5 [       273] cuts =  0 [   4]
  --> max chng: dpmx=   2.6900E+04

== RICHARDS FLOW ===============================================================
  0 2r: 1.97E-06 2x: 0.00E+00 2u: 0.00E+00 ir: 2.81E-07 iu: 0.00E+00 rsn:   0
  1 2r: 3.42E-08 2x: 1.64E+06 2u: 2.67E+04 ir: 6.96E-09 iu: 8.77E+03 rsn:   0
  2 2r: 1.27E-10 2x: 1.64E+06 2u: 2.24E+03 ir: 5.92E-11 iu: 1.02E+03 rsn:   0
  3 2r: 7.79E-14 2x: 1.64E+06 2u: 5.88E+01 ir: 5.60E-14 iu: 3.45E+01 rsn:   0
  4 2r: 7.25E-19 2x: 1.64E+06 2u: 4.58E-02 ir: 9.49E-20 iu: 3.25E-02 rsn: rtol
 Step     59 Time=  4.70476E+00 Dt=  1.44554E-02 [d] snes_conv_reason:    3
  newton =   4 [     277] linear =     4 [       277] cuts =  0 [   4]
  --> max chng: dpmx=   8.2834E+03

== RICHARDS FLOW ===============================================================
  0 2r: 1.97E-06 2x: 0.00E+00 2u: 0.00E+00 ir: 2.82E-07 iu: 0.00E+00 rsn:   0
  1 2r: 8.27E-08 2x: 1.64E+06 2u: 5.58E+04 ir: 1.70E-08 iu: 1.95E+04 rsn:   0
  2 2r: 7.28E-09 2x: 1.64E+06 2u: 9.38E+03 ir: 3.51E-09 iu: 3.54E+03 rsn:   0
  3 2r: 5.41E-10 2x: 1.64E+06 2u: 3.02E+03 ir: 2.81E-10 iu: 1.27E+03 rsn:   0
  4 2r: 3.56E-12 2x: 1.64E+06 2u: 2.47E+02 ir: 2.01E-12 iu: 1.16E+02 rsn:   0
  5 2r: 1.68E-16 2x: 1.64E+06 2u: 1.59E+00 ir: 1.03E-16 iu: 8.37E-01 rsn: rtol
 Step     60 Time=  4.73367E+00 Dt=  2.89108E-02 [d] snes_conv_reason:    3
  newton =   5 [     282] linear =     5 [       282] cuts =  0 [   4]
  --> max chng: dpmx=   1.7161E+04

== RICHARDS FLOW ===============================================================
  0 2r: 1.97E-06 2x: 0.00E+00 2u: 0.00E+00 ir: 2.83E-07 iu: 0.00E+00 rsn:   0
  1 2r: 2.37E-08 2x: 1.65E+06 2u: 1.32E+04 ir: 5.34E-09 iu: 5.57E+03 rsn:   0
  2 2r: 1.16E-10 2x: 1.65E+06 2u: 1.03E+03 ir: 4.54E-11 iu: 4.59E+02 rsn:   0
  3 2r: 5.57E-14 2x: 1.65E+06 2u: 2.10E+01 ir: 2.63E-14 iu: 1.06E+01 rsn:   0
  4 2r: 8.87E-19 2x: 1.65E+06 2u: 1.03E-02 ir: 1.36E-19 iu: 5.61E-03 rsn: rtol
 Step     61 Time=  4.74321E+00 Dt=  9.54058E-03 [d] snes_conv_reason:    3
  newton =   4 [     286] linear =     4 [       286] cuts =  0 [   4]
  --> max chng: dpmx=   5.3253E+03

== RICHARDS FLOW ===============================================================
  0 2r: 1.97E-06 2x: 0.00E+00 2u: 0.00E+00 ir: 2.83E-07 iu: 0.00E+00 rsn:   0
  1 2r: 5.29E-08 2x: 1.65E+06 2u: 2.68E+04 ir: 1.22E-08 iu: 1.21E+04 rsn:   0
  2 2r: 1.38E-09 2x: 1.65E+06 2u: 3.67E+03 ir: 5.77E-10 iu: 1.71E+03 rsn:   0
  3 2r: 1.16E-11 2x: 1.65E+06 2u: 3.45E+02 ir: 6.42E-12 iu: 2.04E+02 rsn:   0
  4 2r: 1.13E-15 2x: 1.65E+06 2u: 3.27E+00 ir: 8.06E-16 iu: 2.22E+00 rsn: rtol
 Step     62 Time=  4.76229E+00 Dt=  1.90812E-02 [d] snes_conv_reason:    3
  newton =   4 [     290] linear =     4 [       290] cuts =  0 [   4]
  --> max chng: dpmx=   1.1182E+04

== RICHARDS FLOW ===============================================================
  0 2r: 1.97E-06 2x: 0.00E+00 2u: 0.00E+00 ir: 2.84E-07 iu: 0.00E+00 rsn:   0
  1 2r: 1.47E-07 2x: 1.66E+06 2u: 5.58E+04 ir: 3.88E-08 iu: 2.75E+04 rsn:   0
  2 2r: 2.40E-08 2x: 1.66E+06 2u: 9.11E+03 ir: 1.34E-08 iu: 4.23E+03 rsn:   0
  3 2r: 3.74E-09 2x: 1.66E+06 2u: 4.75E+03 ir: 2.92E-09 iu: 3.08E+03 rsn:   0
  4 2r: 2.12E-10 2x: 1.66E+06 2u: 1.28E+03 ir: 2.00E-10 iu: 9.19E+02 rsn:   0
  5 2r: 1.06E-12 2x: 1.66E+06 2u: 8.11E+01 ir: 1.05E-12 iu: 7.27E+01 rsn:   0
  6 2r: 2.94E-17 2x: 1.66E+06 2u: 3.91E-01 ir: 2.94E-17 iu: 3.87E-01 rsn: rtol
 Step     63 Time=  4.80045E+00 Dt=  3.81623E-02 [d] snes_conv_reason:    3
  newton =   6 [     296] linear =     6 [       296] cuts =  0 [   4]
  --> max chng: dpmx=   2.2871E+04

== RICHARDS FLOW ===============================================================
  0 2r: 1.97E-06 2x: 0.00E+00 2u: 0.00E+00 ir: 2.85E-07 iu: 0.00E+00 rsn:   0
  1 2r: 3.50E-08 2x: 1.66E+06 2u: 1.34E+04 ir: 8.53E-09 iu: 7.44E+03 rsn:   0
  2 2r: 2.04E-10 2x: 1.66E+06 2u: 1.09E+03 ir: 1.08E-10 iu: 8.08E+02 rsn:   0
  3 2r: 1.84E-13 2x: 1.66E+06 2u: 3.41E+01 ir: 1.66E-13 iu: 2.49E+01 rsn:   0
  4 2r: 8.50E-19 2x: 1.66E+06 2u: 3.87E-02 ir: 4.07E-19 iu: 3.24E-02 rsn: rtol
 Step     64 Time=  4.81305E+00 Dt=  1.25936E-02 [d] snes_conv_reason:    3
  newton =   4 [     300] linear =     4 [       300] cuts =  0 [   4]
  --> max chng: dpmx=   7.2215E+03

== RICHARDS FLOW ===============================================================
  0 2r: 1.97E-06 2x: 0.00E+00 2u: 0.00E+00 ir: 2.85E-07 iu: 0.00E+00 rsn:   0
  1 2r: 8.06E-08 2x: 1.66E+06 2u: 2.86E+04 ir: 1.95E-08 iu: 1.63E+04 rsn:   0
  2 2r: 2.73E-09 2x: 1.66E+06 2u: 3.81E+03 ir: 1.63E-09 iu: 2.38E+03 rsn:   0
  3 2r: 6.52E-11 2x: 1.66E+06 2u: 6.44E+02 ir: 6.09E-11 iu: 5.88E+02 rsn:   0
  4 2r: 8.99E-14 2x: 1.66E+06 2u: 2.40E+01 ir: 8.96E-14 iu: 2.37E+01 rsn:   0
  5 2r: 6.26E-19 2x: 1.66E+06 2u: 3.50E-02 ir: 1.93E-19 iu: 3.50E-02 rsn: rtol
 Step     65 Time=  4.83823E+00 Dt=  2.51871E-02 [d] snes_conv_reason:    3
  newton =   5 [     305] linear =     5 [       305] cuts =  0 [   4]
  --> max chng: dpmx=   1.3997E+04

== RICHARDS FLOW ===============================================================
  0 2r: 1.97E-06 2x: 0.00E+00 2u: 0.00E+00 ir: 2.85E-07 iu: 0.00E+00 rsn:   0
  1 2r: 2.32E-08 2x: 1.67E+06 2u: 8.00E+03 ir: 5.67E-09 iu: 4.46E+03 rsn:   0
  2 2r: 4.61E-11 2x: 1.67E+06 2u: 4.17E+02 ir: 2.28E-11 iu: 3.42E+02 rsn:   0
  3 2r: 5.37E-15 2x: 1.67E+06 2u: 4.75E+00 ir: 4.97E-15 iu: 3.78E+00 rsn: rtol
 Step     66 Time=  4.84655E+00 Dt=  8.31175E-03 [d] snes_conv_reason:    3
  newton =   3 [     308] linear =     3 [       308] cuts =  0 [   4]
  --> max chng: dpmx=   4.4183E+03

== RICHARDS FLOW ===============================================================
  0 2r: 1.97E-06 2x: 0.00E+00 2u: 0.00E+00 ir: 2.85E-07 iu: 0.00E+00 rsn:   0
  1 2r: 5.06E-08 2x: 1.67E+06 2u: 1.67E+04 ir: 1.23E-08 iu: 1.00E+04 rsn:   0
  2 2r: 5.15E-10 2x: 1.67E+06 2u: 1.57E+03 ir: 2.49E-10 iu: 1.27E+03 rsn:   0
  3 2r: 1.42E-12 2x: 1.67E+06 2u: 1.06E+02 ir: 1.25E-12 iu: 1.00E+02 rsn:   0
  4 2r: 3.17E-17 2x: 1.67E+06 2u: 5.15E-01 ir: 3.12E-17 iu: 5.07E-01 rsn: rtol
 Step     67 Time=  4.86317E+00 Dt=  1.66235E-02 [d] snes_conv_reason:    3
  newton =   4 [     312] linear =     4 [       312] cuts =  0 [   4]
  --> max chng: dpmx=   9.6162E+03

== RICHARDS FLOW ===============================================================
  0 2r: 1.97E-06 2x: 0.00E+00 2u: 0.00E+00 ir: 2.84E-07 iu: 0.00E+00 rsn:   0
  1 2r: 1.24E-07 2x: 1.67E+06 2u: 3.59E+04 ir: 2.80E-08 iu: 2.21E+04 rsn:   0
  2 2r: 7.14E-09 2x: 1.67E+06 2u: 5.63E+03 ir: 4.50E-09 iu: 3.95E+03 rsn:   0
  3 2r: 3.95E-10 2x: 1.67E+06 2u: 1.39E+03 ir: 3.87E-10 iu: 1.02E+03 rsn:   0
  4 2r: 3.32E-12 2x: 1.67E+06 2u: 1.07E+02 ir: 3.32E-12 iu: 1.05E+02 rsn:   0
  5 2r: 2.49E-16 2x: 1.67E+06 2u: 9.15E-01 ir: 2.49E-16 iu: 9.15E-01 rsn: rtol
 Step     68 Time=  4.89642E+00 Dt=  3.32470E-02 [d] snes_conv_reason:    3
  newton =   5 [     317] linear =     5 [       317] cuts =  0 [   4]
  --> max chng: dpmx=   1.7295E+04

== RICHARDS FLOW ===============================================================
  0 2r: 1.98E-06 2x: 0.00E+00 2u: 0.00E+00 ir: 2.84E-07 iu: 0.00E+00 rsn:   0
  1 2r: 3.30E-08 2x: 1.68E+06 2u: 9.46E+03 ir: 7.74E-09 iu: 5.87E+03 rsn:   0
  2 2r: 1.10E-10 2x: 1.68E+06 2u: 6.58E+02 ir: 5.18E-11 iu: 5.62E+02 rsn:   0
  3 2r: 4.21E-14 2x: 1.68E+06 2u: 1.71E+01 ir: 4.03E-14 iu: 1.65E+01 rsn:   0
  4 2r: 8.95E-19 2x: 1.68E+06 2u: 1.29E-02 ir: 1.36E-19 iu: 1.28E-02 rsn: rtol
 Step     69 Time=  4.90739E+00 Dt=  1.09715E-02 [d] snes_conv_reason:    3
  newton =   4 [     321] linear =     4 [       321] cuts =  0 [   4]
  --> max chng: dpmx=   5.7967E+03

== RICHARDS FLOW ===============================================================
  0 2r: 1.98E-06 2x: 0.00E+00 2u: 0.00E+00 ir: 2.83E-07 iu: 0.00E+00 rsn:   0
  1 2r: 7.44E-08 2x: 1.68E+06 2u: 2.07E+04 ir: 1.67E-08 iu: 1.36E+04 rsn:   0
  2 2r: 1.31E-09 2x: 1.68E+06 2u: 2.22E+03 ir: 7.80E-10 iu: 1.54E+03 rsn:   0
  3 2r: 1.28E-11 2x: 1.68E+06 2u: 2.40E+02 ir: 1.26E-11 iu: 2.30E+02 rsn:   0
  4 2r: 3.39E-15 2x: 1.68E+06 2u: 3.84E+00 ir: 3.39E-15 iu: 3.84E+00 rsn: rtol
 Step     70 Time=  4.92933E+00 Dt=  2.19430E-02 [d] snes_conv_reason:    3
  newton =   4 [     325] linear =     4 [       325] cuts =  0 [   4]
  --> max chng: dpmx=   1.2677E+04

== RICHARDS FLOW ===============================================================
  0 2r: 1.98E-06 2x: 0.00E+00 2u: 0.00E+00 ir: 2.82E-07 iu: 0.00E+00 rsn:   0
  1 2r: 2.03E-07 2x: 1.69E+06 2u: 5.63E+04 ir: 4.65E-08 iu: 2.88E+04 rsn:   0
  2 2r: 1.96E-08 2x: 1.69E+06 2u: 8.07E+03 ir: 9.47E-09 iu: 4.36E+03 rsn:   0
  3 2r: 2.24E-09 2x: 1.69E+06 2u: 5.94E+03 ir: 1.85E-09 iu: 3.73E+03 rsn:   0
  4 2r: 1.17E-10 2x: 1.69E+06 2u: 1.34E+03 ir: 1.14E-10 iu: 1.32E+03 rsn:   0
  5 2r: 4.46E-13 2x: 1.69E+06 2u: 9.17E+01 ir: 4.46E-13 iu: 9.16E+01 rsn:   0
  6 2r: 6.92E-18 2x: 1.69E+06 2u: 3.63E-01 ir: 6.90E-18 iu: 3.63E-01 rsn: rtol
 Step     71 Time=  4.97322E+00 Dt=  4.38861E-02 [d] snes_conv_reason:    3
  newton =   6 [     331] linear =     6 [       331] cuts =  0 [   4]
  --> max chng: dpmx=   2.0828E+04

== RICHARDS FLOW ===============================================================
  0 2r: 1.99E-06 2x: 0.00E+00 2u: 0.00E+00 ir: 2.84E-07 iu: 0.00E+00 rsn:   0
  1 2r: 4.72E-08 2x: 1.69E+06 2u: 2.24E+04 ir: 9.62E-09 iu: 8.47E+03 rsn:   0
  2 2r: 2.50E-10 2x: 1.69E+06 2u: 7.49E+02 ir: 1.38E-10 iu: 6.22E+02 rsn:   0
  3 2r: 3.10E-13 2x: 1.69E+06 2u: 3.22E+01 ir: 3.09E-13 iu: 3.14E+01 rsn:   0
  4 2r: 1.75E-18 2x: 1.69E+06 2u: 7.06E-02 ir: 1.57E-18 iu: 7.06E-02 rsn: rtol
 Step     72 Time=  4.98770E+00 Dt=  1.44824E-02 [d] snes_conv_reason:    3
  newton =   4 [     335] linear =     4 [       335] cuts =  0 [   4]
  --> max chng: dpmx=   8.4467E+03

== RICHARDS FLOW ===============================================================
  0 2r: 1.99E-06 2x: 0.00E+00 2u: 0.00E+00 ir: 2.85E-07 iu: 0.00E+00 rsn:   0
  1 2r: 3.97E-08 2x: 1.69E+06 2u: 2.22E+04 ir: 7.96E-09 iu: 8.47E+03 rsn:   0
  2 2r: 1.37E-10 2x: 1.69E+06 2u: 5.13E+02 ir: 6.40E-11 iu: 3.15E+02 rsn:   0
  3 2r: 5.07E-14 2x: 1.69E+06 2u: 9.62E+00 ir: 5.05E-14 iu: 9.19E+00 rsn:   0
  4 2r: 9.22E-19 2x: 1.69E+06 2u: 7.24E-03 ir: 1.63E-19 iu: 7.24E-03 rsn: rtol
 Step     73 Time=  5.00000E+00 Dt=  1.23007E-02 [d] snes_conv_reason:    3
  newton =   4 [     339] linear =     4 [       339] cuts =  0 [   4]
  --> max chng: dpmx=   8.3099E+03

 Wall Clock Time:  3.6205E+00 [sec]   6.0341E-02 [min]   1.0057E-03 [hr]
