
=================
  PFLOTRAN v3.0
=================

 "grid_structured_type" set to default value.
 pflotran card:: NUMERICAL_METHODS
 pflotran card:: GRID
 pflotran card:: MATERIAL_PROPERTY
   Name :: soil1
 "MATERIAL_PROPERTY,rock density units" set to default value.
 pflotran card:: CHARACTERISTIC_CURVES
   Name :: cc1
 pflotran card:: EOS
 "EOS,WATER,DENSITY,CONSTANT units" set to default value.
 pflotran card:: OUTPUT
 "OUTPUT,SNAPSHOT_FILE,FORMAT,HDF5" set to default value.
 pflotran card:: TIME
 pflotran card:: REGION
 all
 pflotran card:: REGION
 right_face
 pflotran card:: REGION
 injector
 pflotran card:: FLOW_CONDITION
 initial_pressure
 pflotran card:: FLOW_CONDITION
 right_face
 pflotran card:: FLOW_CONDITION
 injector
 pflotran card:: INITIAL_CONDITION
 "Initial Condition name" set to default value.
 pflotran card:: BOUNDARY_CONDITION
 pflotran card:: SOURCE_SINK
 pflotran card:: STRATA
 pflotran card:: END_SUBSURFACE
 Domain Bounds (x y z):
     0.0000000000E+00  0.0000000000E+00  0.0000000000E+00
     1.0000000000E+01  1.0000000000E+00  1.0000000000E+00
 Extent of Gridded Domain
  X: 0.0000000000000000 - 10.000000000000000
  Y: 0.0000000000000000 - 1.0000000000000000
  Z: 0.0000000000000000 - 1.0000000000000000

 Default HDF5 method is used in Initialization

 Requested processors and decomposition =     1, npx,y,z=   -1  -1  -1
 Actual decomposition: npx,y,z=    1   1   1

   Beginning setup of FLOW SNES
 number of dofs =   1, number of phases =   1
 mode = Richards: p
   Finished setting up FLOW SNES

FLOW Time Stepper
                 acceleration: on
       acceleration threshold: 5
       number of ramp entries: 5
                ramp entry #1: 2.0000
                ramp entry #2: 2.0000
                ramp entry #3: 2.0000
                ramp entry #4: 2.0000
                ramp entry #5: 2.0000
                ramp entry #6: 1.8000
                ramp entry #7: 1.6000
                ramp entry #8: 1.4000
                ramp entry #9: 1.2000
               ramp entry #10: 1.0000
               ramp entry #11: 1.0000
               ramp entry #12: 1.0000
               ramp entry #13: 1.0000
      maximum number of steps: 999999
constant time steps threshold: 5
       maximum number of cuts: 16
             reduction factor: 5.000000E-01
        maximum growth factor: 2.000000E+00

FLOW Newton Solver
                         atol: 1.000000E-50
                         rtol: 1.000000E-08
                         stol: 1.000000E-08
                         dtol: 1.000000E+04
                      maxnorm: 1.000000E+20
                    inftolres: -9.990000E+02
                    inftolupd: -9.990000E+02
                 inftolrelupd: -9.990000E+02
                 inftolsclres: -9.990000E+02
                     max iter: 50
                     min iter: 1
                         maxf: 10000
                  matrix type: baij
         precond. matrix type: baij
               inexact newton: off
            print convergence: on
   print detailed convergence: off
          check infinity norm: on

FLOW Linear Solver
                       solver: preonly
               preconditioner: lu
                         atol: 1.000000E-50
                         rtol: 1.000000E-05
                         dtol: 1.000000E+04
            maximum iteration: 10000
 --> creating hdf5 output file: massRate_pft.h5
       0.17 Seconds to write HDF5 file.
 --> write tecplot output file: massRate_pft-000.tec
 max_local_size_saved:        10
       0.00 Seconds to write to Tecplot file(s)
 
   Finished Initialization

== RICHARDS FLOW ===============================================================
  0 2r: 5.55E-08 2x: 0.00E+00 2u: 0.00E+00 ir: 5.55E-08 iu: 0.00E+00 rsn:   0
  1 2r: 5.33E-20 2x: 3.22E+05 2u: 1.85E+03 ir: 5.33E-20 iu: 9.66E+02 rsn: rtol

 Step      1 Time=  1.00000E-01 Dt=  1.00000E-01 [d] snes_conv_reason:    3
  newton =   1 [       1] linear =     1 [         1] cuts =  0 [   0]
  --> SNES Linear/Non-Linear Iterations =            1  /            1
  --> SNES Residual:   5.333661E-20  5.333661E-21  5.333661E-20
  --> max chng: dpmx=   9.6615E+02
 

== RICHARDS FLOW ===============================================================
  0 2r: 5.33E-20 2x: 0.00E+00 2u: 0.00E+00 ir: 5.33E-20 iu: 0.00E+00 rsn:   0
  1 2r: 5.33E-20 2x: 3.22E+05 2u: 1.78E-09 ir: 5.33E-20 iu: 9.28E-10 rsn: stol

 Step      2 Time=  2.00000E-01 Dt=  1.00000E-01 [d] snes_conv_reason:    4
  newton =   1 [       2] linear =     1 [         2] cuts =  0 [   0]
  --> SNES Linear/Non-Linear Iterations =            1  /            1
  --> SNES Residual:   5.333661E-20  5.333661E-21  5.333661E-20
  --> max chng: dpmx=   9.3132E-10
 

== RICHARDS FLOW ===============================================================
  0 2r: 5.33E-20 2x: 0.00E+00 2u: 0.00E+00 ir: 5.33E-20 iu: 0.00E+00 rsn:   0
  1 2r: 1.64E-19 2x: 3.22E+05 2u: 1.78E-09 ir: 1.64E-19 iu: 9.28E-10 rsn: stol

 Step      3 Time=  3.00000E-01 Dt=  1.00000E-01 [d] snes_conv_reason:    4
  newton =   1 [       3] linear =     1 [         3] cuts =  0 [   0]
  --> SNES Linear/Non-Linear Iterations =            1  /            1
  --> SNES Residual:   1.635038E-19  1.635038E-20  1.635038E-19
  --> max chng: dpmx=   9.3132E-10
 

== RICHARDS FLOW ===============================================================
  0 2r: 1.64E-19 2x: 0.00E+00 2u: 0.00E+00 ir: 1.64E-19 iu: 0.00E+00 rsn:   0
  1 2r: 5.33E-20 2x: 3.22E+05 2u: 5.46E-09 ir: 5.33E-20 iu: 2.85E-09 rsn: stol

 Step      4 Time=  4.00000E-01 Dt=  1.00000E-01 [d] snes_conv_reason:    4
  newton =   1 [       4] linear =     1 [         4] cuts =  0 [   0]
  --> SNES Linear/Non-Linear Iterations =            1  /            1
  --> SNES Residual:   5.333661E-20  5.333661E-21  5.333661E-20
  --> max chng: dpmx=   2.8522E-09
 

== RICHARDS FLOW ===============================================================
  0 2r: 5.33E-20 2x: 0.00E+00 2u: 0.00E+00 ir: 5.33E-20 iu: 0.00E+00 rsn:   0
  1 2r: 5.33E-20 2x: 3.22E+05 2u: 1.78E-09 ir: 5.33E-20 iu: 9.28E-10 rsn: stol

 Step      5 Time=  5.00000E-01 Dt=  1.00000E-01 [d] snes_conv_reason:    4
  newton =   1 [       5] linear =     1 [         5] cuts =  0 [   0]
  --> SNES Linear/Non-Linear Iterations =            1  /            1
  --> SNES Residual:   5.333661E-20  5.333661E-21  5.333661E-20
  --> max chng: dpmx=   9.3132E-10
 

== RICHARDS FLOW ===============================================================
  0 2r: 5.33E-20 2x: 0.00E+00 2u: 0.00E+00 ir: 5.33E-20 iu: 0.00E+00 rsn:   0
  1 2r: 5.33E-20 2x: 3.22E+05 2u: 1.78E-09 ir: 5.33E-20 iu: 9.28E-10 rsn: stol

 Step      6 Time=  6.00000E-01 Dt=  1.00000E-01 [d] snes_conv_reason:    4
  newton =   1 [       6] linear =     1 [         6] cuts =  0 [   0]
  --> SNES Linear/Non-Linear Iterations =            1  /            1
  --> SNES Residual:   5.333661E-20  5.333661E-21  5.333661E-20
  --> max chng: dpmx=   9.3132E-10
 

== RICHARDS FLOW ===============================================================
  0 2r: 5.33E-20 2x: 0.00E+00 2u: 0.00E+00 ir: 5.33E-20 iu: 0.00E+00 rsn:   0
  1 2r: 1.64E-19 2x: 3.22E+05 2u: 1.78E-09 ir: 1.64E-19 iu: 9.28E-10 rsn: stol

 Step      7 Time=  7.00000E-01 Dt=  1.00000E-01 [d] snes_conv_reason:    4
  newton =   1 [       7] linear =     1 [         7] cuts =  0 [   0]
  --> SNES Linear/Non-Linear Iterations =            1  /            1
  --> SNES Residual:   1.635038E-19  1.635038E-20  1.635038E-19
  --> max chng: dpmx=   9.3132E-10
 

== RICHARDS FLOW ===============================================================
  0 2r: 1.64E-19 2x: 0.00E+00 2u: 0.00E+00 ir: 1.64E-19 iu: 0.00E+00 rsn:   0
  1 2r: 5.33E-20 2x: 3.22E+05 2u: 5.46E-09 ir: 5.33E-20 iu: 2.85E-09 rsn: stol

 Step      8 Time=  8.00000E-01 Dt=  1.00000E-01 [d] snes_conv_reason:    4
  newton =   1 [       8] linear =     1 [         8] cuts =  0 [   0]
  --> SNES Linear/Non-Linear Iterations =            1  /            1
  --> SNES Residual:   5.333661E-20  5.333661E-21  5.333661E-20
  --> max chng: dpmx=   2.8522E-09
 

== RICHARDS FLOW ===============================================================
  0 2r: 5.33E-20 2x: 0.00E+00 2u: 0.00E+00 ir: 5.33E-20 iu: 0.00E+00 rsn:   0
  1 2r: 5.33E-20 2x: 3.22E+05 2u: 1.78E-09 ir: 5.33E-20 iu: 9.28E-10 rsn: stol

 Step      9 Time=  9.00000E-01 Dt=  1.00000E-01 [d] snes_conv_reason:    4
  newton =   1 [       9] linear =     1 [         9] cuts =  0 [   0]
  --> SNES Linear/Non-Linear Iterations =            1  /            1
  --> SNES Residual:   5.333661E-20  5.333661E-21  5.333661E-20
  --> max chng: dpmx=   9.3132E-10
 

== RICHARDS FLOW ===============================================================
  0 2r: 5.33E-20 2x: 0.00E+00 2u: 0.00E+00 ir: 5.33E-20 iu: 0.00E+00 rsn:   0
  1 2r: 5.33E-20 2x: 3.22E+05 2u: 1.78E-09 ir: 5.33E-20 iu: 9.28E-10 rsn: stol

 Step     10 Time=  1.00000E+00 Dt=  1.00000E-01 [d] snes_conv_reason:    4
  newton =   1 [      10] linear =     1 [        10] cuts =  0 [   0]
  --> SNES Linear/Non-Linear Iterations =            1  /            1
  --> SNES Residual:   5.333661E-20  5.333661E-21  5.333661E-20
  --> max chng: dpmx=   9.3132E-10
 
 --> appending to hdf5 output file: massRate_pft.h5
       0.00 Seconds to write HDF5 file.
 --> write tecplot output file: massRate_pft-001.tec
       0.00 Seconds to write to Tecplot file(s)

PMCSubsurfaceFlow
 Total Time:   3.5238E-03 [sec]

 FLOW TS BE steps =     10 newton =       10 linear =         10 cuts =      0
FLOW TS BE Wasted Linear Iterations = 0
FLOW TS BE Wasted Newton Iterations = 0
 FLOW TS BE SNES time = 0.0 seconds
----------

 Wall Clock Time:  2.4582E-01 [sec]   4.0970E-03 [min]   6.8284E-05 [hr]
