
=================
  PFLOTRAN v3.0
=================


 *DXYZ 
  dx  
  1.0000E+00  1.0000E+00  1.0000E+00  1.0000E+00  1.0000E+00
  dy  
  1.0000E+00  1.0000E+00  1.0000E+00  1.0000E+00  1.0000E+00
  dz  
  1.0000E+00
 Extent of Gridded Domain
  X: 0.0000000000000000 - 5.0000000000000000
  Y: 0.0000000000000000 - 5.0000000000000000
  Z: 0.0000000000000000 - 1.0000000000000000


=+=+=+=+=+=+=+=+=+=+=+=+=+=+=+=+=+=+=+=+=+=+=+=+=+=+=+=+=+=+=+=+=+=+=+=+=+=+=+=+

  Initial Condition

--------------------------------------------------------------------------------
          Flow Condition:   initial
                  Region:   all
--------------------------------------------------------------------------------

  Flow Condition: initial
    Synchronize time with update: no
    Time units: yr
    Length units: m
      Datum:

    Sub Condition: pressure
      Type: dirichlet
      Gradient:
      Data:
        Dataset: pressure
          Type: dataset_hdf5_type
          Filename: ./pres_temp.h5
          Transient: no
          HDF5 Dataset Name: pressure
          Realization Dependent: no
          Cell Indexed: yes
          Maximum Buffer Size: ***

    Sub Condition: temperature
      Type: dirichlet
      Gradient:
      Data:
        Dataset: temperature
          Type: dataset_hdf5_type
          Filename: ./pres_temp.h5
          Transient: no
          HDF5 Dataset Name: temperature
          Realization Dependent: no
          Cell Indexed: yes
          Maximum Buffer Size: ***

--------------------------------------------------------------------------------

 Requested processors and decomposition =     1, npx,y,z=   -1  -1  -1
 Actual decomposition: npx,y,z=    1   1   1


FLOW Time Stepper
                 acceleration: on
       acceleration threshold: 5
       number of ramp entries: 5
                ramp entry #1: 2.0000
                ramp entry #2: 2.0000
                ramp entry #3: 2.0000
                ramp entry #4: 2.0000
                ramp entry #5: 2.0000
                ramp entry #6: 1.8000
                ramp entry #7: 1.6000
                ramp entry #8: 1.4000
                ramp entry #9: 1.2000
               ramp entry #10: 1.0000
               ramp entry #11: 1.0000
               ramp entry #12: 1.0000
               ramp entry #13: 1.0000
      maximum number of steps: 999999
constant time steps threshold: 5
       maximum number of cuts: 16
             reduction factor: 5.000000E-01
        maximum growth factor: 2.000000E+00

FLOW Newton Solver
                         atol: 1.000000E-50
                         rtol: 1.000000E-08
                         stol: 1.000000E-08
                         dtol: 1.000000E+04
                      maxnorm: 1.000000E+20
                    inftolres: -9.990000E+02
                    inftolupd: -9.990000E+02
                 inftolrelupd: -9.990000E+02
                 inftolsclres: -9.990000E+02
                     max iter: 50
                     min iter: 1
                         maxf: 10000
                  matrix type: baij
         precond. matrix type: baij
               inexact newton: off
            print convergence: on
   print detailed convergence: off
          check infinity norm: on

FLOW Linear Solver
                       solver: preonly
               preconditioner: lu
                         atol: 1.000000E-50
                         rtol: 1.000000E-05
                         dtol: 1.000000E+04
            maximum iteration: 10000

== TH FLOW =====================================================================
  0 2r: 2.01E+00 2x: 0.00E+00 2u: 0.00E+00 ir: 1.38E+00 iu: 0.00E+00 rsn:   0
  1 2r: 2.81E-02 2x: 8.45E+06 2u: 8.88E+06 ir: 1.51E-02 iu: 3.35E+06 rsn:   0
  2 2r: 6.08E-05 2x: 8.53E+06 2u: 1.23E+05 ir: 3.22E-05 iu: 5.98E+04 rsn:   0
  3 2r: 5.42E-06 2x: 8.52E+06 2u: 5.94E+03 ir: 4.40E-06 iu: 1.26E+03 rsn:   0
  4 2r: 5.02E-09 2x: 8.52E+06 2u: 1.56E+02 ir: 3.72E-09 iu: 3.56E+01 rsn: rtol
 Step      1 Time=  1.00000E+00 Dt=  1.00000E+00 [d] snes_conv_reason:    3
  newton =   4 [       4] linear =     4 [         4] cuts =  0 [   0]
  --> max chng: dpmx=   3.2948E+06 dtmpmx=   1.3835E+00

 Wall Clock Time:  1.7218E-01 [sec]   2.8697E-03 [min]   4.7828E-05 [hr]
