
=================
  PFLOTRAN v3.0
=================

 Extent of Gridded Domain
  X: 0.0000000000000000 - 1.0000000000000000
  Y: 0.0000000000000000 - 1.0000000000000000
  Z: 0.0000000000000000 - 10.000000000000000


=+=+=+=+=+=+=+=+=+=+=+=+=+=+=+=+=+=+=+=+=+=+=+=+=+=+=+=+=+=+=+=+=+=+=+=+=+=+=+=+

  Initial Condition

--------------------------------------------------------------------------------
          Flow Condition:   initial_pressure
                  Region:   all
--------------------------------------------------------------------------------

  Flow Condition: initial_pressure
    Synchronize time with update: no
    Time units: yr
    Length units: m
      Datum:
        Dataset: Unnamed Ascii Dataset
          Type: dataset_ascii_type
          Transient: no
          Array Rank:  3

    Sub Condition: pressure
      Type: hydrostatic
      Gradient:
      Data:
        Dataset: Unnamed Ascii Dataset
          Type: dataset_ascii_type
          Transient: no
          Array Rank:  1

--------------------------------------------------------------------------------

=+=+=+=+=+=+=+=+=+=+=+=+=+=+=+=+=+=+=+=+=+=+=+=+=+=+=+=+=+=+=+=+=+=+=+=+=+=+=+=+

  Boundary Condition

--------------------------------------------------------------------------------
          Flow Condition:   initial_pressure
                  Region:   bottom
--------------------------------------------------------------------------------

  Flow Condition: initial_pressure
    Synchronize time with update: no
    Time units: yr
    Length units: m
      Datum:
        Dataset: Unnamed Ascii Dataset
          Type: dataset_ascii_type
          Transient: no
          Array Rank:  3

    Sub Condition: pressure
      Type: hydrostatic
      Gradient:
      Data:
        Dataset: Unnamed Ascii Dataset
          Type: dataset_ascii_type
          Transient: no
          Array Rank:  1

--------------------------------------------------------------------------------

=+=+=+=+=+=+=+=+=+=+=+=+=+=+=+=+=+=+=+=+=+=+=+=+=+=+=+=+=+=+=+=+=+=+=+=+=+=+=+=+

  Boundary Condition

--------------------------------------------------------------------------------
          Flow Condition:   recharge
                  Region:   top
--------------------------------------------------------------------------------

  Flow Condition: recharge
    Synchronize time with update: no
    Time units: yr
    Length units: m
      Datum:

    Sub Condition: pressure
      Type: neumann
      Gradient:
      Data:
        Dataset: Unnamed Ascii Dataset
          Type: dataset_ascii_type
          Transient: no
          Array Rank:  1

--------------------------------------------------------------------------------

 Requested processors and decomposition =     1, npx,y,z=   -1  -1  -1
 Actual decomposition: npx,y,z=    1   1   1


FLOW Time Stepper
                 acceleration: on
       acceleration threshold: 5
       number of ramp entries: 5
                ramp entry #1: 2.0000
                ramp entry #2: 2.0000
                ramp entry #3: 2.0000
                ramp entry #4: 2.0000
                ramp entry #5: 2.0000
                ramp entry #6: 1.8000
                ramp entry #7: 1.6000
                ramp entry #8: 1.4000
                ramp entry #9: 1.2000
               ramp entry #10: 1.0000
               ramp entry #11: 1.0000
               ramp entry #12: 1.0000
               ramp entry #13: 1.0000
      maximum number of steps: 999999
constant time steps threshold: 5
       maximum number of cuts: 16
             reduction factor: 5.000000E-01
        maximum growth factor: 2.000000E+00

FLOW Newton Solver
                         atol: 1.000000E-50
                         rtol: 1.000000E-08
                         stol: 1.000000E-08
                         dtol: 1.000000E+04
                      maxnorm: 1.000000E+20
                    inftolres: -9.990000E+02
                    inftolupd: -9.990000E+02
                 inftolrelupd: -9.990000E+02
                 inftolsclres: -9.990000E+02
                     max iter: 50
                     min iter: 1
                         maxf: 10000
                  matrix type: baij
         precond. matrix type: baij
               inexact newton: off
            print convergence: on
   print detailed convergence: off
          check infinity norm: on

FLOW Linear Solver
                       solver: preonly
               preconditioner: lu
                         atol: 1.000000E-50
                         rtol: 1.000000E-05
                         dtol: 1.000000E+04
            maximum iteration: 10000

== RICHARDS FLOW ===============================================================
  0 2r: 6.41E-09 2x: 0.00E+00 2u: 0.00E+00 ir: 6.41E-09 iu: 0.00E+00 rsn:   0
  1 2r: 2.49E-14 2x: 6.83E+05 2u: 3.47E-01 ir: 2.49E-14 iu: 3.47E-01 rsn:   0
  2 2r: 2.46E-17 2x: 6.83E+05 2u: 1.35E-06 ir: 1.04E-17 iu: 1.35E-06 rsn: rtol
 Step      1 Time=  1.00000E-03 Dt=  1.00000E-03 [day] snes_conv_reason:    3
  newton =   2 [       2] linear =     2 [         2] cuts =  0 [   0]
  --> max chng: dpmx=   3.4694E-01

== RICHARDS FLOW ===============================================================
  0 2r: 6.41E-09 2x: 0.00E+00 2u: 0.00E+00 ir: 6.40E-09 iu: 0.00E+00 rsn:   0
  1 2r: 4.99E-14 2x: 6.83E+05 2u: 6.93E-01 ir: 4.99E-14 iu: 6.93E-01 rsn:   0
  2 2r: 2.08E-17 2x: 6.83E+05 2u: 5.40E-06 ir: 8.67E-18 iu: 5.40E-06 rsn: rtol
 Step      2 Time=  3.00000E-03 Dt=  2.00000E-03 [day] snes_conv_reason:    3
  newton =   2 [       4] linear =     2 [         4] cuts =  0 [   0]
  --> max chng: dpmx=   6.9321E-01

== RICHARDS FLOW ===============================================================
  0 2r: 6.40E-09 2x: 0.00E+00 2u: 0.00E+00 ir: 6.40E-09 iu: 0.00E+00 rsn:   0
  1 2r: 9.99E-14 2x: 6.83E+05 2u: 1.38E+00 ir: 9.99E-14 iu: 1.38E+00 rsn:   0
  2 2r: 2.21E-17 2x: 6.83E+05 2u: 2.16E-05 ir: 1.04E-17 iu: 2.16E-05 rsn: rtol
 Step      3 Time=  7.00000E-03 Dt=  4.00000E-03 [day] snes_conv_reason:    3
  newton =   2 [       6] linear =     2 [         6] cuts =  0 [   0]
  --> max chng: dpmx=   1.3838E+00

== RICHARDS FLOW ===============================================================
  0 2r: 6.39E-09 2x: 0.00E+00 2u: 0.00E+00 ir: 6.38E-09 iu: 0.00E+00 rsn:   0
  1 2r: 2.00E-13 2x: 6.83E+05 2u: 2.76E+00 ir: 2.00E-13 iu: 2.76E+00 rsn:   0
  2 2r: 2.00E-17 2x: 6.83E+05 2u: 8.63E-05 ir: 9.54E-18 iu: 8.63E-05 rsn: rtol
 Step      4 Time=  1.50000E-02 Dt=  8.00000E-03 [day] snes_conv_reason:    3
  newton =   2 [       8] linear =     2 [         8] cuts =  0 [   0]
  --> max chng: dpmx=   2.7570E+00

== RICHARDS FLOW ===============================================================
  0 2r: 6.36E-09 2x: 0.00E+00 2u: 0.00E+00 ir: 6.36E-09 iu: 0.00E+00 rsn:   0
  1 2r: 4.01E-13 2x: 6.83E+05 2u: 5.47E+00 ir: 4.00E-13 iu: 5.47E+00 rsn:   0
  2 2r: 2.62E-17 2x: 6.83E+05 2u: 3.44E-04 ir: 1.24E-17 iu: 3.44E-04 rsn: rtol
 Step      5 Time=  3.10000E-02 Dt=  1.60000E-02 [day] snes_conv_reason:    3
  newton =   2 [      10] linear =     2 [        10] cuts =  0 [   0]
  --> max chng: dpmx=   5.4726E+00

== RICHARDS FLOW ===============================================================
  0 2r: 6.31E-09 2x: 0.00E+00 2u: 0.00E+00 ir: 6.31E-09 iu: 0.00E+00 rsn:   0
  1 2r: 8.04E-13 2x: 6.83E+05 2u: 1.08E+01 ir: 8.02E-13 iu: 1.08E+01 rsn:   0
  2 2r: 2.26E-17 2x: 6.83E+05 2u: 1.37E-03 ir: 1.14E-17 iu: 1.37E-03 rsn: rtol
 Step      6 Time=  6.30000E-02 Dt=  3.20000E-02 [day] snes_conv_reason:    3
  newton =   2 [      12] linear =     2 [        12] cuts =  0 [   0]
  --> max chng: dpmx=   1.0784E+01

== RICHARDS FLOW ===============================================================
  0 2r: 6.22E-09 2x: 0.00E+00 2u: 0.00E+00 ir: 6.22E-09 iu: 0.00E+00 rsn:   0
  1 2r: 1.62E-12 2x: 6.83E+05 2u: 2.10E+01 ir: 1.61E-12 iu: 2.10E+01 rsn:   0
  2 2r: 2.39E-17 2x: 6.83E+05 2u: 5.41E-03 ir: 9.87E-18 iu: 5.39E-03 rsn: rtol
 Step      7 Time=  1.27000E-01 Dt=  6.40000E-02 [day] snes_conv_reason:    3
  newton =   2 [      14] linear =     2 [        14] cuts =  0 [   0]
  --> max chng: dpmx=   2.0958E+01

== RICHARDS FLOW ===============================================================
  0 2r: 6.06E-09 2x: 0.00E+00 2u: 0.00E+00 ir: 6.05E-09 iu: 0.00E+00 rsn:   0
  1 2r: 3.24E-12 2x: 6.83E+05 2u: 4.00E+01 ir: 3.19E-12 iu: 3.97E+01 rsn:   0
  2 2r: 1.63E-17 2x: 6.83E+05 2u: 2.08E-02 ir: 7.67E-18 iu: 2.07E-02 rsn: rtol
 Step      8 Time=  2.55000E-01 Dt=  1.28000E-01 [day] snes_conv_reason:    3
  newton =   2 [      16] linear =     2 [        16] cuts =  0 [   0]
  --> max chng: dpmx=   3.9721E+01

== RICHARDS FLOW ===============================================================
  0 2r: 5.77E-09 2x: 0.00E+00 2u: 0.00E+00 ir: 5.74E-09 iu: 0.00E+00 rsn:   0
  1 2r: 6.35E-12 2x: 6.83E+05 2u: 7.36E+01 ir: 6.13E-12 iu: 7.23E+01 rsn:   0
  2 2r: 1.65E-17 2x: 6.83E+05 2u: 7.51E-02 ir: 8.92E-18 iu: 7.43E-02 rsn: rtol
 Step      9 Time=  5.11000E-01 Dt=  2.56000E-01 [day] snes_conv_reason:    3
  newton =   2 [      18] linear =     2 [        18] cuts =  0 [   0]
  --> max chng: dpmx=   7.2197E+01

== RICHARDS FLOW ===============================================================
  0 2r: 5.32E-09 2x: 0.00E+00 2u: 0.00E+00 ir: 5.22E-09 iu: 0.00E+00 rsn:   0
  1 2r: 1.14E-11 2x: 6.83E+05 2u: 1.30E+02 ir: 1.09E-11 iu: 1.24E+02 rsn:   0
  2 2r: 6.13E-17 2x: 6.83E+05 2u: 2.38E-01 ir: 5.09E-17 iu: 2.36E-01 rsn:   0
  3 2r: 1.98E-17 2x: 6.83E+05 2u: 1.11E-06 ir: 1.04E-17 iu: 1.06E-06 rsn: rtol
 Step     10 Time=  1.02300E+00 Dt=  5.12000E-01 [day] snes_conv_reason:    3
  newton =   3 [      21] linear =     3 [        21] cuts =  0 [   0]
  --> max chng: dpmx=   1.2348E+02

== RICHARDS FLOW ===============================================================
  0 2r: 4.73E-09 2x: 0.00E+00 2u: 0.00E+00 ir: 4.47E-09 iu: 0.00E+00 rsn:   0
  1 2r: 1.71E-11 2x: 6.83E+05 2u: 2.19E+02 ir: 1.65E-11 iu: 1.93E+02 rsn:   0
  2 2r: 2.88E-16 2x: 6.83E+05 2u: 6.07E-01 ir: 2.38E-16 iu: 6.04E-01 rsn:   0
  3 2r: 2.51E-17 2x: 6.83E+05 2u: 8.18E-06 ir: 1.37E-17 iu: 7.74E-06 rsn: rtol
 Step     11 Time=  2.02300E+00 Dt=  1.00000E+00 [day] snes_conv_reason:    3
  newton =   3 [      24] linear =     3 [        24] cuts =  0 [   0]
  --> max chng: dpmx=   1.9265E+02

== RICHARDS FLOW ===============================================================
  0 2r: 4.08E-09 2x: 0.00E+00 2u: 0.00E+00 ir: 3.59E-09 iu: 0.00E+00 rsn:   0
  1 2r: 1.03E-11 2x: 6.83E+05 2u: 1.97E+02 ir: 1.02E-11 iu: 1.61E+02 rsn:   0
  2 2r: 1.04E-16 2x: 6.83E+05 2u: 4.06E-01 ir: 8.89E-17 iu: 3.94E-01 rsn:   0
  3 2r: 1.99E-17 2x: 6.83E+05 2u: 3.06E-06 ir: 1.09E-17 iu: 2.97E-06 rsn: rtol
 Step     12 Time=  3.02300E+00 Dt=  1.00000E+00 [day] snes_conv_reason:    3
  newton =   3 [      27] linear =     3 [        27] cuts =  0 [   0]
  --> max chng: dpmx=   1.6101E+02

== RICHARDS FLOW ===============================================================
  0 2r: 3.69E-09 2x: 0.00E+00 2u: 0.00E+00 ir: 3.01E-09 iu: 0.00E+00 rsn:   0
  1 2r: 7.09E-12 2x: 6.83E+05 2u: 1.81E+02 ir: 6.90E-12 iu: 1.40E+02 rsn:   0
  2 2r: 5.20E-17 2x: 6.83E+05 2u: 3.02E-01 ir: 3.98E-17 iu: 2.81E-01 rsn:   0
  3 2r: 2.94E-17 2x: 6.83E+05 2u: 1.40E-06 ir: 1.41E-17 iu: 1.39E-06 rsn: rtol
 Step     13 Time=  4.02300E+00 Dt=  1.00000E+00 [day] snes_conv_reason:    3
  newton =   3 [      30] linear =     3 [        30] cuts =  0 [   0]
  --> max chng: dpmx=   1.3928E+02

== RICHARDS FLOW ===============================================================
  0 2r: 3.42E-09 2x: 0.00E+00 2u: 0.00E+00 ir: 2.61E-09 iu: 0.00E+00 rsn:   0
  1 2r: 5.38E-12 2x: 6.83E+05 2u: 1.70E+02 ir: 5.03E-12 iu: 1.24E+02 rsn:   0
  2 2r: 3.56E-17 2x: 6.83E+05 2u: 2.41E-01 ir: 2.06E-17 iu: 2.13E-01 rsn:   0
  3 2r: 2.85E-17 2x: 6.83E+05 2u: 7.60E-07 ir: 1.43E-17 iu: 7.50E-07 rsn: rtol
 Step     14 Time=  5.02300E+00 Dt=  1.00000E+00 [day] snes_conv_reason:    3
  newton =   3 [      33] linear =     3 [        33] cuts =  0 [   0]
  --> max chng: dpmx=   1.2354E+02

== RICHARDS FLOW ===============================================================
  0 2r: 3.23E-09 2x: 0.00E+00 2u: 0.00E+00 ir: 2.32E-09 iu: 0.00E+00 rsn:   0
  1 2r: 4.35E-12 2x: 6.83E+05 2u: 1.61E+02 ir: 3.87E-12 iu: 1.12E+02 rsn:   0
  2 2r: 2.67E-17 2x: 6.83E+05 2u: 2.00E-01 ir: 1.37E-17 iu: 1.70E-01 rsn: rtol
 Step     15 Time=  6.02300E+00 Dt=  1.00000E+00 [day] snes_conv_reason:    3
  newton =   2 [      35] linear =     2 [        35] cuts =  0 [   0]
  --> max chng: dpmx=   1.1164E+02

== RICHARDS FLOW ===============================================================
  0 2r: 3.07E-09 2x: 0.00E+00 2u: 0.00E+00 ir: 2.10E-09 iu: 0.00E+00 rsn:   0
  1 2r: 3.65E-12 2x: 6.83E+05 2u: 1.54E+02 ir: 3.11E-12 iu: 1.02E+02 rsn:   0
  2 2r: 1.46E-17 2x: 6.83E+05 2u: 1.72E-01 ir: 7.43E-18 iu: 1.40E-01 rsn: rtol
 Step     16 Time=  7.02300E+00 Dt=  1.00000E+00 [day] snes_conv_reason:    3
  newton =   2 [      37] linear =     2 [        37] cuts =  0 [   0]
  --> max chng: dpmx=   1.0230E+02

== RICHARDS FLOW ===============================================================
  0 2r: 2.95E-09 2x: 0.00E+00 2u: 0.00E+00 ir: 1.93E-09 iu: 0.00E+00 rsn:   0
  1 2r: 3.16E-12 2x: 6.83E+05 2u: 1.48E+02 ir: 2.57E-12 iu: 9.49E+01 rsn:   0
  2 2r: 1.75E-17 2x: 6.83E+05 2u: 1.51E-01 ir: 8.53E-18 iu: 1.18E-01 rsn: rtol
 Step     17 Time=  8.02300E+00 Dt=  1.00000E+00 [day] snes_conv_reason:    3
  newton =   2 [      39] linear =     2 [        39] cuts =  0 [   0]
  --> max chng: dpmx=   9.4748E+01

== RICHARDS FLOW ===============================================================
  0 2r: 2.84E-09 2x: 0.00E+00 2u: 0.00E+00 ir: 1.79E-09 iu: 0.00E+00 rsn:   0
  1 2r: 2.79E-12 2x: 6.83E+05 2u: 1.43E+02 ir: 2.18E-12 iu: 8.86E+01 rsn:   0
  2 2r: 2.06E-17 2x: 6.83E+05 2u: 1.35E-01 ir: 1.42E-17 iu: 1.01E-01 rsn: rtol
 Step     18 Time=  9.02300E+00 Dt=  1.00000E+00 [day] snes_conv_reason:    3
  newton =   2 [      41] linear =     2 [        41] cuts =  0 [   0]
  --> max chng: dpmx=   8.8496E+01

== RICHARDS FLOW ===============================================================
  0 2r: 2.75E-09 2x: 0.00E+00 2u: 0.00E+00 ir: 1.68E-09 iu: 0.00E+00 rsn:   0
  1 2r: 2.45E-12 2x: 6.83E+05 2u: 1.35E+02 ir: 1.84E-12 iu: 8.15E+01 rsn:   0
  2 2r: 2.35E-17 2x: 6.83E+05 2u: 1.16E-01 ir: 1.25E-17 iu: 8.48E-02 rsn: rtol
 Step     19 Time=  1.00000E+01 Dt=  9.77000E-01 [day] snes_conv_reason:    3
  newton =   2 [      43] linear =     2 [        43] cuts =  0 [   0]
  --> max chng: dpmx=   8.1404E+01

 Wall Clock Time:  1.8960E-02 [sec]   3.1600E-04 [min]   5.2667E-06 [hr]
