
=================
  PFLOTRAN v3.0
=================

